./pdb_data/10GSVWWlig.pdb
 OpenBabel04272312373D

 66 68  0  0  1  0  0  0  0  0999 V2000
   15.0880   10.7980   23.5470 N   0  0  0  0  0  0  0  0  0  0  0  0
   15.0100    9.9870   24.7920 C   0  0  2  0  0  0  0  0  0  0  0  0
   16.1150    8.9240   24.8300 C   0  0  0  0  0  0  0  0  0  0  0  0
   16.5200    8.5150   25.9400 O   0  0  0  0  0  0  0  0  0  0  0  0
   13.6350    9.3270   24.9080 C   0  0  0  0  0  0  0  0  0  0  0  0
   13.3940    8.7080   26.2710 C   0  0  0  0  0  0  0  0  0  0  0  0
   12.0450    8.0460   26.4020 C   0  0  0  0  0  0  0  0  0  0  0  0
   11.2930    7.9360   25.4350 O   0  0  0  0  0  0  0  0  0  0  0  0
   16.5780    8.5240   23.7440 O   0  0  0  0  0  0  0  0  0  0  0  0
   11.7260    7.6420   27.6280 N   0  0  0  0  0  0  0  0  0  0  0  0
   10.4720    6.9670   27.9340 C   0  0  1  0  0  0  0  0  0  0  0  0
   10.7260    5.4840   28.2060 C   0  0  0  0  0  0  0  0  0  0  0  0
   11.2910    4.5240   26.8100 S   0  0  0  0  0  0  0  0  0  0  0  0
    9.7290    3.8040   26.2620 C   0  0  0  0  0  0  0  0  0  0  0  0
    8.9300    3.1710   27.3700 C   0  0  0  0  0  0  0  0  0  0  0  0
    7.6400    3.6140   27.6500 C   0  0  0  0  0  0  0  0  0  0  0  0
    9.4640    2.1350   28.1330 C   0  0  0  0  0  0  0  0  0  0  0  0
    6.8930    3.0370   28.6730 C   0  0  0  0  0  0  0  0  0  0  0  0
    8.7230    1.5500   29.1610 C   0  0  0  0  0  0  0  0  0  0  0  0
    7.4370    2.0010   29.4300 C   0  0  0  0  0  0  0  0  0  0  0  0
    9.8340    7.5500   29.1800 C   0  0  0  0  0  0  0  0  0  0  0  0
   10.5220    8.0230   30.0840 O   0  0  0  0  0  0  0  0  0  0  0  0
    8.5120    7.4680   29.2290 N   0  0  0  0  0  0  0  0  0  0  0  0
    7.7400    7.9330   30.3660 C   0  0  2  0  0  0  0  0  0  0  0  0
    6.5550    7.0620   30.6330 C   0  0  0  0  0  0  0  0  0  0  0  0
    5.3300    7.3150   30.0270 C   0  0  0  0  0  0  0  0  0  0  0  0
    4.2500    6.4590   30.2200 C   0  0  0  0  0  0  0  0  0  0  0  0
    4.3920    5.3390   31.0270 C   0  0  0  0  0  0  0  0  0  0  0  0
    5.6110    5.0810   31.6400 C   0  0  0  0  0  0  0  0  0  0  0  0
    6.6830    5.9410   31.4410 C   0  0  0  0  0  0  0  0  0  0  0  0
    7.4520    9.4330   30.3540 C   0  0  0  0  0  0  0  0  0  0  0  0
    7.1160    9.9570   31.4330 O   0  0  0  0  0  0  0  0  0  0  0  0
    7.5690   10.0680   29.2840 O   0  0  0  0  0  0  0  0  0  0  0  0
   17.0770   12.9450   10.1620 N   0  0  0  0  0  0  0  0  0  0  0  0
   17.3060   13.7630    8.9400 C   0  0  2  0  0  0  0  0  0  0  0  0
   18.2530   14.9310    9.2290 C   0  0  0  0  0  0  0  0  0  0  0  0
   18.9400   15.3910    8.2880 O   0  0  0  0  0  0  0  0  0  0  0  0
   15.9730   14.2850    8.3910 C   0  0  0  0  0  0  0  0  0  0  0  0
   16.1060   14.9030    7.0110 C   0  0  0  0  0  0  0  0  0  0  0  0
   14.8050   15.4310    6.4600 C   0  0  0  0  0  0  0  0  0  0  0  0
   13.7830   15.4490    7.1460 O   0  0  0  0  0  0  0  0  0  0  0  0
   18.3080   15.3650   10.3990 O   0  0  0  0  0  0  0  0  0  0  0  0
   14.8420   15.8220    5.1910 N   0  0  0  0  0  0  0  0  0  0  0  0
   13.6840   16.3740    4.5040 C   0  0  1  0  0  0  0  0  0  0  0  0
   13.8600   17.8800    4.3040 C   0  0  0  0  0  0  0  0  0  0  0  0
   13.8640   18.8700    5.7950 S   0  0  0  0  0  0  0  0  0  0  0  0
   12.1460   19.4180    5.8160 C   0  0  0  0  0  0  0  0  0  0  0  0
   11.6710   19.9860    4.5050 C   0  0  0  0  0  0  0  0  0  0  0  0
   10.5840   19.4260    3.8470 C   0  0  0  0  0  0  0  0  0  0  0  0
   12.3090   21.0810    3.9290 C   0  0  0  0  0  0  0  0  0  0  0  0
   10.1370   19.9460    2.6370 C   0  0  0  0  0  0  0  0  0  0  0  0
   11.8680   21.6090    2.7170 C   0  0  0  0  0  0  0  0  0  0  0  0
   10.7810   21.0400    2.0710 C   0  0  0  0  0  0  0  0  0  0  0  0
   13.5270   15.7540    3.1300 C   0  0  0  0  0  0  0  0  0  0  0  0
   14.5060   15.3670    2.4910 O   0  0  0  0  0  0  0  0  0  0  0  0
   12.2840   15.7050    2.6720 N   0  0  0  0  0  0  0  0  0  0  0  0
   11.9530   15.1870    1.3570 C   0  0  2  0  0  0  0  0  0  0  0  0
   10.8280   15.9430    0.7240 C   0  0  0  0  0  0  0  0  0  0  0  0
    9.5060   15.5560    0.9220 C   0  0  0  0  0  0  0  0  0  0  0  0
    8.4600   16.3040    0.3920 C   0  0  0  0  0  0  0  0  0  0  0  0
    8.7340   17.4490   -0.3450 C   0  0  0  0  0  0  0  0  0  0  0  0
   10.0510   17.8400   -0.5510 C   0  0  0  0  0  0  0  0  0  0  0  0
   11.0880   17.0860   -0.0190 C   0  0  0  0  0  0  0  0  0  0  0  0
   11.8270   13.6650    1.2990 C   0  0  0  0  0  0  0  0  0  0  0  0
   11.9040   13.1310    0.1760 O   0  0  0  0  0  0  0  0  0  0  0  0
   11.6660   13.0220    2.3580 O   0  0  0  0  0  0  0  0  0  0  0  0
  2  1  1  6  0  0  0
  2  3  1  0  0  0  0
  2  5  1  0  0  0  0
  3  4  1  0  0  0  0
  5  6  1  0  0  0  0
  6  7  1  0  0  0  0
  7 10  1  0  0  0  0
  8  7  2  0  0  0  0
  9  3  2  0  0  0  0
 10 11  1  0  0  0  0
 11 12  1  1  0  0  0
 11 21  1  0  0  0  0
 13 12  1  0  0  0  0
 14 13  1  0  0  0  0
 14 15  1  0  0  0  0
 15 16  2  0  0  0  0
 15 17  1  0  0  0  0
 16 18  1  0  0  0  0
 17 19  2  0  0  0  0
 18 20  2  0  0  0  0
 19 20  1  0  0  0  0
 21 23  1  0  0  0  0
 21 22  2  0  0  0  0
 24 23  1  6  0  0  0
 24 25  1  0  0  0  0
 25 30  1  0  0  0  0
 26 27  1  0  0  0  0
 26 25  2  0  0  0  0
 27 28  2  0  0  0  0
 28 29  1  0  0  0  0
 30 29  2  0  0  0  0
 31 24  1  0  0  0  0
 31 32  1  0  0  0  0
 33 31  2  0  0  0  0
 35 36  1  0  0  0  0
 35 34  1  1  0  0  0
 36 42  1  0  0  0  0
 37 36  2  0  0  0  0
 38 35  1  0  0  0  0
 39 38  1  0  0  0  0
 40 39  1  0  0  0  0
 40 41  2  0  0  0  0
 43 40  1  0  0  0  0
 44 45  1  6  0  0  0
 44 43  1  0  0  0  0
 45 46  1  0  0  0  0
 46 47  1  0  0  0  0
 48 47  1  0  0  0  0
 49 48  2  0  0  0  0
 50 48  1  0  0  0  0
 51 49  1  0  0  0  0
 52 50  2  0  0  0  0
 53 51  2  0  0  0  0
 53 52  1  0  0  0  0
 54 44  1  0  0  0  0
 55 54  2  0  0  0  0
 56 54  1  0  0  0  0
 57 64  1  1  0  0  0
 57 56  1  0  0  0  0
 58 59  1  0  0  0  0
 58 57  1  0  0  0  0
 60 59  2  0  0  0  0
 61 60  1  0  0  0  0
 62 61  2  0  0  0  0
 62 63  1  0  0  0  0
 63 58  2  0  0  0  0
 64 66  1  0  0  0  0
 65 64  2  0  0  0  0
M  END
>  <REMARK>
 Selection 'resname VWW'

$$$$
