./pdb_data/10GSMESlig.pdb
 OpenBabel05082319003D

 24 24  0  0  0  0  0  0  0  0999 V2000
   22.4260   -6.6670   36.1760 O   0  0  0  0  0  0  0  0  0  0  0  0
   22.8010   -7.7430   37.0790 C   0  0  0  0  0  0  0  0  0  0  0  0
   23.9080   -8.6180   36.4490 C   0  0  0  0  0  0  0  0  0  0  0  0
   24.4060   -8.0040   35.1140 N   0  0  0  0  0  0  0  0  0  0  0  0
   24.6960   -6.4840   35.2140 C   0  0  0  0  0  0  0  0  0  0  0  0
   23.4920   -5.7340   35.8270 C   0  0  0  0  0  0  0  0  0  0  0  0
   25.5840   -8.7900   34.5000 C   0  0  0  0  0  0  0  0  0  0  0  0
   25.7400   -8.5800   32.9810 C   0  0  0  0  0  0  0  0  0  0  0  0
   26.9520   -9.6950   32.2740 S   0  0  0  0  0  0  0  0  0  0  0  0
   27.7190   -9.0060   31.0680 O   0  0  0  0  0  0  0  0  0  0  0  0
   26.2550  -11.0320   31.7760 O   0  0  0  0  0  0  0  0  0  0  0  0
   28.1020  -10.1240   33.4140 O   0  0  0  0  0  0  0  0  0  0  0  0
   26.1830   31.2720    0.1930 O   0  0  0  0  0  0  0  0  0  0  0  0
   26.7100   32.3960   -0.5660 C   0  0  0  0  0  0  0  0  0  0  0  0
   27.4730   33.3660    0.3660 C   0  0  0  0  0  0  0  0  0  0  0  0
   27.5890   32.7810    1.7970 N   0  0  0  0  0  0  0  0  0  0  0  0
   28.0480   31.2990    1.8110 C   0  0  0  0  0  0  0  0  0  0  0  0
   27.1740   30.4440    0.8690 C   0  0  0  0  0  0  0  0  0  0  0  0
   28.4330   33.6710    2.7370 C   0  0  0  0  0  0  0  0  0  0  0  0
   28.1280   33.4510    4.2330 C   0  0  0  0  0  0  0  0  0  0  0  0
   28.9420   34.6700    5.2660 S   0  0  0  0  0  0  0  0  0  0  0  0
   29.3630   34.0380    6.6590 O   0  0  0  0  0  0  0  0  0  0  0  0
   28.0000   35.9220    5.5020 O   0  0  0  0  0  0  0  0  0  0  0  0
   30.3420   35.2310    4.5340 O   0  0  0  0  0  0  0  0  0  0  0  0
  1  2  1  0  0  0  0
  3  2  1  0  0  0  0
  4  5  1  0  0  0  0
  4  3  1  0  0  0  0
  5  6  1  0  0  0  0
  6  1  1  0  0  0  0
  7  4  1  0  0  0  0
  8  7  1  0  0  0  0
  9  8  1  0  0  0  0
  9 12  1  0  0  0  0
 10  9  1  0  0  0  0
 11  9  1  0  0  0  0
 13 18  1  0  0  0  0
 14 13  1  0  0  0  0
 14 15  1  0  0  0  0
 15 16  1  0  0  0  0
 16 17  1  0  0  0  0
 16 19  1  0  0  0  0
 18 17  1  0  0  0  0
 19 20  1  0  0  0  0
 20 21  1  0  0  0  0
 21 23  1  0  0  0  0
 21 22  1  0  0  0  0
 24 21  1  0  0  0  0
M  END
>  <REMARK>
 Selection 'resname MES'

$$$$
