./pdb_data/11GSGSHlig.pdb
 OpenBabel04272312373D

 40 38  0  0  1  0  0  0  0  0999 V2000
   14.7090   10.7820   23.2520 N   0  0  0  0  0  0  0  0  0  0  0  0
   14.6200    9.9440   24.4710 C   0  0  2  0  0  0  0  0  0  0  0  0
   15.7480    8.9120   24.4560 C   0  0  0  0  0  0  0  0  0  0  0  0
   16.0850    8.4010   25.5410 O   0  0  0  0  0  0  0  0  0  0  0  0
   16.3130    8.6420   23.3670 O   0  0  0  0  0  0  0  0  0  0  0  0
   13.2690    9.2400   24.5300 C   0  0  0  0  0  0  0  0  0  0  0  0
   12.9530    8.6610   25.9060 C   0  0  0  0  0  0  0  0  0  0  0  0
   11.5780    8.0220   25.9870 C   0  0  0  0  0  0  0  0  0  0  0  0
   10.7970    8.0380   25.0250 O   0  0  0  0  0  0  0  0  0  0  0  0
   11.2470    7.5340   27.1750 N   0  0  0  0  0  0  0  0  0  0  0  0
    9.9720    6.8700   27.4160 C   0  0  2  0  0  0  0  0  0  0  0  0
    9.3670    7.3930   28.7190 C   0  0  0  0  0  0  0  0  0  0  0  0
   10.0850    7.8880   29.5910 O   0  0  0  0  0  0  0  0  0  0  0  0
   10.2030    5.3550   27.5530 C   0  0  0  0  0  0  0  0  0  0  0  0
   11.4450    4.7020   26.3760 S   0  0  0  0  0  0  0  0  0  0  0  0
    8.0510    7.2770   28.8380 N   0  0  0  0  0  0  0  0  0  0  0  0
    7.3820    7.6900   30.0580 C   0  0  0  0  0  0  0  0  0  0  0  0
    6.9000    9.1180   30.0690 C   0  0  0  0  0  0  0  0  0  0  0  0
    6.0060    9.4220   30.8870 O   0  0  0  0  0  0  0  0  0  0  0  0
    7.3950    9.9270   29.2540 O   0  0  0  0  0  0  0  0  0  0  0  0
   16.8170   13.0580    9.9810 N   0  0  0  0  0  0  0  0  0  0  0  0
   17.0160   13.7660    8.6870 C   0  0  2  0  0  0  0  0  0  0  0  0
   17.7020   15.0740    9.0650 C   0  0  0  0  0  0  0  0  0  0  0  0
   18.3550   15.6950    8.1990 O   0  0  0  0  0  0  0  0  0  0  0  0
   17.6040   15.4320   10.2620 O   0  0  0  0  0  0  0  0  0  0  0  0
   15.6630   14.0350    8.0360 C   0  0  0  0  0  0  0  0  0  0  0  0
   15.7230   14.5300    6.6130 C   0  0  0  0  0  0  0  0  0  0  0  0
   14.3850   15.0620    6.1520 C   0  0  0  0  0  0  0  0  0  0  0  0
   13.3830   15.0460    6.8900 O   0  0  0  0  0  0  0  0  0  0  0  0
   14.3630   15.5470    4.9210 N   0  0  0  0  0  0  0  0  0  0  0  0
   13.1530   16.1000    4.3290 C   0  0  2  0  0  0  0  0  0  0  0  0
   13.0780   15.6430    2.8720 C   0  0  0  0  0  0  0  0  0  0  0  0
   14.1040   15.3560    2.2420 O   0  0  0  0  0  0  0  0  0  0  0  0
   13.2100   17.6380    4.3780 C   0  0  0  0  0  0  0  0  0  0  0  0
   13.8420   18.3130    5.9640 S   0  0  0  0  0  0  0  0  0  0  0  0
   11.8660   15.6120    2.3320 N   0  0  0  0  0  0  0  0  0  0  0  0
   11.6810   15.2080    0.9560 C   0  0  0  0  0  0  0  0  0  0  0  0
   11.4150   13.7280    0.8250 C   0  0  0  0  0  0  0  0  0  0  0  0
   10.7280   13.3390   -0.1400 O   0  0  0  0  0  0  0  0  0  0  0  0
   11.8760   12.9620    1.6940 O   0  0  0  0  0  0  0  0  0  0  0  0
  2  1  1  6  0  0  0
  2  6  1  0  0  0  0
  3  2  1  0  0  0  0
  3  4  1  0  0  0  0
  5  3  2  0  0  0  0
  6  7  1  0  0  0  0
  7  8  1  0  0  0  0
  8 10  1  0  0  0  0
  9  8  2  0  0  0  0
 10 11  1  0  0  0  0
 11 14  1  1  0  0  0
 11 12  1  0  0  0  0
 12 16  1  0  0  0  0
 12 13  2  0  0  0  0
 15 14  1  0  0  0  0
 16 17  1  0  0  0  0
 17 18  1  0  0  0  0
 18 19  1  0  0  0  0
 20 18  2  0  0  0  0
 22 23  1  0  0  0  0
 22 21  1  1  0  0  0
 23 25  1  0  0  0  0
 24 23  2  0  0  0  0
 26 22  1  0  0  0  0
 27 26  1  0  0  0  0
 28 27  1  0  0  0  0
 28 29  2  0  0  0  0
 30 28  1  0  0  0  0
 31 34  1  6  0  0  0
 31 30  1  0  0  0  0
 32 31  1  0  0  0  0
 33 32  2  0  0  0  0
 34 35  1  0  0  0  0
 36 32  1  0  0  0  0
 37 36  1  0  0  0  0
 38 37  1  0  0  0  0
 38 40  1  0  0  0  0
 39 38  2  0  0  0  0
M  END
>  <REMARK>
 Selection 'resname GSH'

$$$$
