./pdb_data/11GSEAAlig.pdb
 OpenBabel04272312373D

 38 38  0  0  1  0  0  0  0  0999 V2000
    5.7920    2.7370   28.0810 C   0  0  0  0  0  0  0  0  0  0  0  0
    5.1050    2.1790   29.1650 O   0  0  0  0  0  0  0  0  0  0  0  0
    7.1260    2.3100   27.8760 C   0  0  0  0  0  0  0  0  0  0  0  0
    7.8760    1.1450   28.9840 Cl  0  0  0  0  0  0  0  0  0  0  0  0
    7.8880    2.8040   26.8050 C   0  0  0  0  0  0  0  0  0  0  0  0
    9.5230    2.1350   26.6450 Cl  0  0  0  0  0  0  0  0  0  0  0  0
    7.3230    3.7760   25.8990 C   0  0  0  0  0  0  0  0  0  0  0  0
    5.9880    4.1980   26.1300 C   0  0  0  0  0  0  0  0  0  0  0  0
    5.2430    3.6890   27.1990 C   0  0  0  0  0  0  0  0  0  0  0  0
    8.0950    4.3720   24.7030 C   0  0  0  0  0  0  0  0  0  0  0  0
    7.5850    5.1970   23.9310 O   0  0  0  0  0  0  0  0  0  0  0  0
    9.6100    3.9850   24.4110 C   0  0  1  0  0  0  0  0  0  0  0  0
    9.8770    3.3130   23.0520 C   0  0  0  0  0  0  0  0  0  0  0  0
   11.1860    2.5160   22.9220 C   0  0  0  0  0  0  0  0  0  0  0  0
   10.6730    5.0250   24.7730 C   0  0  0  0  0  0  0  0  0  0  0  0
    4.0210    1.1970   29.0350 C   0  0  0  0  0  0  0  0  0  0  0  0
    3.8530    0.2730   30.2430 C   0  0  0  0  0  0  0  0  0  0  0  0
    4.7490   -0.5720   30.4860 O   0  0  0  0  0  0  0  0  0  0  0  0
    2.8040    0.3540   30.9250 O   0  0  0  0  0  0  0  0  0  0  0  0
    8.6950   19.7890    2.3280 C   0  0  0  0  0  0  0  0  0  0  0  0
    8.2930   20.2450    1.0600 O   0  0  0  0  0  0  0  0  0  0  0  0
    9.8650   20.3600    2.8690 C   0  0  0  0  0  0  0  0  0  0  0  0
   10.7890   21.5270    1.9070 Cl  0  0  0  0  0  0  0  0  0  0  0  0
   10.3340   19.9730    4.1520 C   0  0  0  0  0  0  0  0  0  0  0  0
   11.7620   20.8090    4.7640 Cl  0  0  0  0  0  0  0  0  0  0  0  0
    9.6190   18.9770    4.9190 C   0  0  0  0  0  0  0  0  0  0  0  0
    8.4530   18.4240    4.3360 C   0  0  0  0  0  0  0  0  0  0  0  0
    7.9970   18.8220    3.0760 C   0  0  0  0  0  0  0  0  0  0  0  0
   10.0750   18.4380    6.2980 C   0  0  0  0  0  0  0  0  0  0  0  0
    9.4640   17.5180    6.8700 O   0  0  0  0  0  0  0  0  0  0  0  0
   11.3710   18.9540    7.0710 C   0  0  1  0  0  0  0  0  0  0  0  0
   11.1120   19.6490    8.4220 C   0  0  0  0  0  0  0  0  0  0  0  0
   12.0950   20.7400    8.8610 C   0  0  0  0  0  0  0  0  0  0  0  0
   12.5250   17.9530    7.1430 C   0  0  0  0  0  0  0  0  0  0  0  0
    7.0950   21.0660    0.8210 C   0  0  0  0  0  0  0  0  0  0  0  0
    7.1670   21.9540   -0.4250 C   0  0  0  0  0  0  0  0  0  0  0  0
    7.9140   22.9600   -0.4110 O   0  0  0  0  0  0  0  0  0  0  0  0
    6.4450   21.6770   -1.4070 O   0  0  0  0  0  0  0  0  0  0  0  0
  1  2  1  0  0  0  0
  3  1  1  0  0  0  0
  3  4  1  0  0  0  0
  5  3  2  0  0  0  0
  6  5  1  0  0  0  0
  7  8  2  0  0  0  0
  7  5  1  0  0  0  0
  8  9  1  0  0  0  0
  9  1  2  0  0  0  0
 10  7  1  0  0  0  0
 11 10  2  0  0  0  0
 12 10  1  0  0  0  0
 12 15  1  6  0  0  0
 13 12  1  0  0  0  0
 14 13  1  0  0  0  0
 16  2  1  0  0  0  0
 16 17  1  0  0  0  0
 17 18  2  0  0  0  0
 17 19  1  0  0  0  0
 20 22  2  0  0  0  0
 20 28  1  0  0  0  0
 21 20  1  0  0  0  0
 22 24  1  0  0  0  0
 23 22  1  0  0  0  0
 24 25  1  0  0  0  0
 24 26  2  0  0  0  0
 26 29  1  0  0  0  0
 27 26  1  0  0  0  0
 28 27  2  0  0  0  0
 29 30  2  0  0  0  0
 29 31  1  0  0  0  0
 31 34  1  1  0  0  0
 31 32  1  0  0  0  0
 32 33  1  0  0  0  0
 35 21  1  0  0  0  0
 36 37  1  0  0  0  0
 36 35  1  0  0  0  0
 38 36  2  0  0  0  0
M  END
>  <REMARK>
 Selection 'resname EAA'

$$$$
