./pdb_data/11GSMESlig.pdb
 OpenBabel04272312373D

 24 24  0  0  0  0  0  0  0  0999 V2000
   22.4910   -6.3510   35.9130 O   0  0  0  0  0  0  0  0  0  0  0  0
   23.0920   -5.5580   34.8370 C   0  0  0  0  0  0  0  0  0  0  0  0
   24.4180   -6.1940   34.3540 C   0  0  0  0  0  0  0  0  0  0  0  0
   24.4140   -7.7350   34.5450 N   0  0  0  0  0  0  0  0  0  0  0  0
   24.1200   -8.1790   36.0040 C   0  0  0  0  0  0  0  0  0  0  0  0
   23.4230   -7.0460   36.7870 C   0  0  0  0  0  0  0  0  0  0  0  0
   25.7040   -8.3560   34.0000 C   0  0  0  0  0  0  0  0  0  0  0  0
   25.8320   -8.2270   32.4810 C   0  0  0  0  0  0  0  0  0  0  0  0
   27.2440   -9.1360   31.9020 S   0  0  0  0  0  0  0  0  0  0  0  0
   28.1820   -8.2050   31.0320 O   0  0  0  0  0  0  0  0  0  0  0  0
   26.7930  -10.4000   31.0600 O   0  0  0  0  0  0  0  0  0  0  0  0
   28.1660   -9.6630   33.1850 O   0  0  0  0  0  0  0  0  0  0  0  0
   25.3990   31.7320    0.1010 O   0  0  0  0  0  0  0  0  0  0  0  0
   26.2980   30.7430    0.6760 C   0  0  0  0  0  0  0  0  0  0  0  0
   26.8760   31.2550    2.0090 C   0  0  0  0  0  0  0  0  0  0  0  0
   26.7380   32.7840    2.1370 N   0  0  0  0  0  0  0  0  0  0  0  0
   26.9340   33.5360    0.7840 C   0  0  0  0  0  0  0  0  0  0  0  0
   26.0260   32.9600   -0.3360 C   0  0  0  0  0  0  0  0  0  0  0  0
   27.6550   33.3290    3.2410 C   0  0  0  0  0  0  0  0  0  0  0  0
   26.8770   33.8800    4.4340 C   0  0  0  0  0  0  0  0  0  0  0  0
   27.8970   34.9370    5.4460 S   0  0  0  0  0  0  0  0  0  0  0  0
   28.3500   34.1800    6.7570 O   0  0  0  0  0  0  0  0  0  0  0  0
   27.1060   36.2660    5.8270 O   0  0  0  0  0  0  0  0  0  0  0  0
   29.3010   35.3490    4.6470 O   0  0  0  0  0  0  0  0  0  0  0  0
  1  6  1  0  0  0  0
  2  1  1  0  0  0  0
  3  4  1  0  0  0  0
  3  2  1  0  0  0  0
  4  5  1  0  0  0  0
  5  6  1  0  0  0  0
  7  4  1  0  0  0  0
  8  7  1  0  0  0  0
  9  8  1  0  0  0  0
  9 12  1  0  0  0  0
 10  9  1  0  0  0  0
 11  9  1  0  0  0  0
 13 14  1  0  0  0  0
 14 15  1  0  0  0  0
 15 16  1  0  0  0  0
 16 19  1  0  0  0  0
 17 16  1  0  0  0  0
 18 13  1  0  0  0  0
 18 17  1  0  0  0  0
 19 20  1  0  0  0  0
 20 21  1  0  0  0  0
 21 23  1  0  0  0  0
 21 22  1  0  0  0  0
 24 21  1  0  0  0  0
M  END
>  <REMARK>
 Selection 'resname MES'

$$$$
