./pdb_data/12GSMESlig.pdb
 OpenBabel05082318563D

 24 24  0  0  0  0  0  0  0  0999 V2000
   22.5730   -6.1900   35.7950 O   0  0  0  0  0  0  0  0  0  0  0  0
   22.9780   -7.2960   36.6520 C   0  0  0  0  0  0  0  0  0  0  0  0
   23.9640   -8.2400   35.9090 C   0  0  0  0  0  0  0  0  0  0  0  0
   24.4410   -7.6370   34.5500 N   0  0  0  0  0  0  0  0  0  0  0  0
   24.7570   -6.1090   34.5940 C   0  0  0  0  0  0  0  0  0  0  0  0
   23.6410   -5.3060   35.3140 C   0  0  0  0  0  0  0  0  0  0  0  0
   25.6030   -8.4470   33.9590 C   0  0  0  0  0  0  0  0  0  0  0  0
   25.7260   -8.3360   32.4330 C   0  0  0  0  0  0  0  0  0  0  0  0
   27.0790   -9.3240   31.8040 S   0  0  0  0  0  0  0  0  0  0  0  0
   28.0580   -8.4510   30.9360 O   0  0  0  0  0  0  0  0  0  0  0  0
   26.5130  -10.5340   30.9340 O   0  0  0  0  0  0  0  0  0  0  0  0
   27.9780   -9.9750   33.0430 O   0  0  0  0  0  0  0  0  0  0  0  0
   25.4410   31.2790    0.2190 O   0  0  0  0  0  0  0  0  0  0  0  0
   25.9090   32.4650   -0.4830 C   0  0  0  0  0  0  0  0  0  0  0  0
   26.4390   33.5260    0.5180 C   0  0  0  0  0  0  0  0  0  0  0  0
   26.5550   32.9600    1.9690 N   0  0  0  0  0  0  0  0  0  0  0  0
   27.1100   31.5030    2.0540 C   0  0  0  0  0  0  0  0  0  0  0  0
   26.4270   30.5600    1.0270 C   0  0  0  0  0  0  0  0  0  0  0  0
   27.3310   33.9220    2.8800 C   0  0  0  0  0  0  0  0  0  0  0  0
   26.9780   33.7920    4.3680 C   0  0  0  0  0  0  0  0  0  0  0  0
   27.8950   34.9520    5.3740 S   0  0  0  0  0  0  0  0  0  0  0  0
   28.6830   34.2000    6.5250 O   0  0  0  0  0  0  0  0  0  0  0  0
   26.9120   36.0340    5.9870 O   0  0  0  0  0  0  0  0  0  0  0  0
   29.0410   35.7660    4.4720 O   0  0  0  0  0  0  0  0  0  0  0  0
  1  2  1  0  0  0  0
  3  2  1  0  0  0  0
  4  5  1  0  0  0  0
  4  3  1  0  0  0  0
  5  6  1  0  0  0  0
  6  1  1  0  0  0  0
  7  4  1  0  0  0  0
  8  7  1  0  0  0  0
  9  8  1  0  0  0  0
  9 12  1  0  0  0  0
 10  9  1  0  0  0  0
 11  9  1  0  0  0  0
 13 18  1  0  0  0  0
 14 13  1  0  0  0  0
 14 15  1  0  0  0  0
 15 16  1  0  0  0  0
 16 17  1  0  0  0  0
 16 19  1  0  0  0  0
 18 17  1  0  0  0  0
 19 20  1  0  0  0  0
 20 21  1  0  0  0  0
 21 23  1  0  0  0  0
 21 22  1  0  0  0  0
 24 21  1  0  0  0  0
M  END
>  <REMARK>
 Selection 'resname MES'

$$$$
