./pdb_data/12GS0HHlig.pdb
 OpenBabel05082318563D

 58 56  0  0  1  0  0  0  0  0999 V2000
   14.5300   10.8070   23.4930 N   0  0  0  0  0  0  0  0  0  0  0  0
   14.5140    9.8280   24.6000 C   0  0  2  0  0  0  0  0  0  0  0  0
   15.7090    8.8890   24.5040 C   0  0  0  0  0  0  0  0  0  0  0  0
   16.1540    8.4110   25.5700 O   0  0  0  0  0  0  0  0  0  0  0  0
   13.2190    9.0270   24.5620 C   0  0  0  0  0  0  0  0  0  0  0  0
   12.9250    8.2460   25.8420 C   0  0  0  0  0  0  0  0  0  0  0  0
   11.4560    7.9320   25.9840 C   0  0  0  0  0  0  0  0  0  0  0  0
   10.6970    8.0250   25.0170 O   0  0  0  0  0  0  0  0  0  0  0  0
   16.1870    8.6480   23.3670 O   0  0  0  0  0  0  0  0  0  0  0  0
   11.0420    7.5440   27.1820 N   0  0  0  0  0  0  0  0  0  0  0  0
    9.6390    7.2420   27.4230 C   0  0  1  0  0  0  0  0  0  0  0  0
    9.3400    5.7610   27.1230 C   0  0  0  0  0  0  0  0  0  0  0  0
   10.2930    4.6050   28.0960 S   0  0  0  0  0  0  0  0  0  0  0  0
    9.2640    7.5970   28.8620 C   0  0  0  0  0  0  0  0  0  0  0  0
   10.1270    7.8500   29.7010 O   0  0  0  0  0  0  0  0  0  0  0  0
    9.9110    3.0300   27.2890 C   0  0  0  0  0  0  0  0  0  0  0  0
    8.4800    2.5410   27.4470 C   0  0  0  0  0  0  0  0  0  0  0  0
    8.1680    2.0860   28.8670 C   0  0  0  0  0  0  0  0  0  0  0  0
    6.7350    1.5480   28.9640 C   0  0  0  0  0  0  0  0  0  0  0  0
    6.1620    1.6260   30.3840 C   0  0  0  0  0  0  0  0  0  0  0  0
    6.9220    0.7390   31.3830 C   0  0  0  0  0  0  0  0  0  0  0  0
    6.9880   -0.7270   30.9520 C   0  0  0  0  0  0  0  0  0  0  0  0
    6.2560   -1.6440   31.9270 C   0  0  0  0  0  0  0  0  0  0  0  0
    6.3960   -3.1050   31.5260 C   0  0  0  0  0  0  0  0  0  0  0  0
    7.9680    7.6200   29.1380 N   0  0  0  0  0  0  0  0  0  0  0  0
    7.5020    7.9670   30.4650 C   0  0  0  0  0  0  0  0  0  0  0  0
    6.8880    9.3530   30.4410 C   0  0  0  0  0  0  0  0  0  0  0  0
    6.1280    9.6730   31.3730 O   0  0  0  0  0  0  0  0  0  0  0  0
    7.1610   10.1210   29.4830 O   0  0  0  0  0  0  0  0  0  0  0  0
   16.8500   12.8960    9.7690 N   0  0  0  0  0  0  0  0  0  0  0  0
   16.9800   13.8190    8.6000 C   0  0  2  0  0  0  0  0  0  0  0  0
   17.8260   15.0230    8.9910 C   0  0  0  0  0  0  0  0  0  0  0  0
   18.3950   15.6700    8.0910 O   0  0  0  0  0  0  0  0  0  0  0  0
   15.5940   14.2860    8.1490 C   0  0  0  0  0  0  0  0  0  0  0  0
   15.5870   15.1850    6.9120 C   0  0  0  0  0  0  0  0  0  0  0  0
   14.2040   15.3080    6.2950 C   0  0  0  0  0  0  0  0  0  0  0  0
   13.1910   15.1070    6.9740 O   0  0  0  0  0  0  0  0  0  0  0  0
   17.9130   15.2990   10.2060 O   0  0  0  0  0  0  0  0  0  0  0  0
   14.1600   15.6610    5.0130 N   0  0  0  0  0  0  0  0  0  0  0  0
   12.8950   15.7710    4.3010 C   0  0  1  0  0  0  0  0  0  0  0  0
   12.2740   17.1580    4.4820 C   0  0  0  0  0  0  0  0  0  0  0  0
   13.1670   18.5280    3.7390 S   0  0  0  0  0  0  0  0  0  0  0  0
   13.0750   15.4510    2.8200 C   0  0  0  0  0  0  0  0  0  0  0  0
   14.1950   15.3760    2.3090 O   0  0  0  0  0  0  0  0  0  0  0  0
   12.2330   19.9220    4.4000 C   0  0  0  0  0  0  0  0  0  0  0  0
   10.8380   20.0070    3.8250 C   0  0  0  0  0  0  0  0  0  0  0  0
   10.8540   20.5510    2.4100 C   0  0  0  0  0  0  0  0  0  0  0  0
    9.5280   21.2170    2.0810 C   0  0  0  0  0  0  0  0  0  0  0  0
    9.3260   21.3730    0.5870 C   0  0  0  0  0  0  0  0  0  0  0  0
   10.4890   22.1030   -0.0710 C   0  0  0  0  0  0  0  0  0  0  0  0
   10.4050   23.6130    0.1310 C   0  0  0  0  0  0  0  0  0  0  0  0
    9.6410   24.2900   -0.9860 C   0  0  0  0  0  0  0  0  0  0  0  0
    9.1440   25.6560   -0.5490 C   0  0  0  0  0  0  0  0  0  0  0  0
   11.9610   15.2400    2.1330 N   0  0  0  0  0  0  0  0  0  0  0  0
   12.0310   14.9020    0.7280 C   0  0  0  0  0  0  0  0  0  0  0  0
   11.7620   13.4250    0.5350 C   0  0  0  0  0  0  0  0  0  0  0  0
   11.5790   13.0000   -0.6230 O   0  0  0  0  0  0  0  0  0  0  0  0
   11.7290   12.6940    1.5450 O   0  0  0  0  0  0  0  0  0  0  0  0
  2  1  1  6  0  0  0
  3  2  1  0  0  0  0
  3  4  1  0  0  0  0
  5  2  1  0  0  0  0
  5  6  1  0  0  0  0
  6  7  1  0  0  0  0
  7 10  1  0  0  0  0
  8  7  2  0  0  0  0
  9  3  2  0  0  0  0
 10 11  1  0  0  0  0
 11 12  1  1  0  0  0
 11 14  1  0  0  0  0
 12 13  1  0  0  0  0
 14 25  1  0  0  0  0
 14 15  2  0  0  0  0
 16 17  1  0  0  0  0
 16 13  1  0  0  0  0
 17 18  1  0  0  0  0
 18 19  1  0  0  0  0
 19 20  1  0  0  0  0
 20 21  1  0  0  0  0
 22 21  1  0  0  0  0
 22 23  1  0  0  0  0
 24 23  1  0  0  0  0
 25 26  1  0  0  0  0
 27 26  1  0  0  0  0
 27 28  1  0  0  0  0
 29 27  2  0  0  0  0
 31 32  1  0  0  0  0
 31 30  1  1  0  0  0
 32 38  1  0  0  0  0
 33 32  2  0  0  0  0
 34 31  1  0  0  0  0
 35 34  1  0  0  0  0
 36 35  1  0  0  0  0
 36 37  2  0  0  0  0
 39 36  1  0  0  0  0
 40 41  1  6  0  0  0
 40 39  1  0  0  0  0
 42 45  1  0  0  0  0
 42 41  1  0  0  0  0
 43 40  1  0  0  0  0
 44 43  2  0  0  0  0
 46 45  1  0  0  0  0
 47 46  1  0  0  0  0
 48 47  1  0  0  0  0
 49 48  1  0  0  0  0
 50 51  1  0  0  0  0
 50 49  1  0  0  0  0
 52 53  1  0  0  0  0
 52 51  1  0  0  0  0
 54 43  1  0  0  0  0
 55 54  1  0  0  0  0
 56 55  1  0  0  0  0
 56 58  1  0  0  0  0
 57 56  2  0  0  0  0
M  END
>  <REMARK>
 Selection 'resname 0HH'

$$$$
