./pdb_data/13GSMESlig.pdb
 OpenBabel05082318563D

 36 36  0  0  0  0  0  0  0  0999 V2000
   22.4220   -6.3560   36.0720 O   0  0  0  0  0  0  0  0  0  0  0  0
   23.4820   -5.4920   35.5670 C   0  0  0  0  0  0  0  0  0  0  0  0
   24.6390   -6.3490   34.9910 C   0  0  0  0  0  0  0  0  0  0  0  0
   24.2450   -7.8560   34.9840 N   0  0  0  0  0  0  0  0  0  0  0  0
   23.7840   -8.3850   36.3720 C   0  0  0  0  0  0  0  0  0  0  0  0
   22.8370   -7.3610   37.0520 C   0  0  0  0  0  0  0  0  0  0  0  0
   25.3450   -8.7270   34.3930 C   0  0  0  0  0  0  0  0  0  0  0  0
   25.4570   -8.6230   32.8680 C   0  0  0  0  0  0  0  0  0  0  0  0
   26.8050   -9.6280   32.2900 S   0  0  0  0  0  0  0  0  0  0  0  0
   27.6010   -8.8910   31.1370 O   0  0  0  0  0  0  0  0  0  0  0  0
   26.2720  -11.0330   31.7790 O   0  0  0  0  0  0  0  0  0  0  0  0
   27.8870   -9.9120   33.5310 O   0  0  0  0  0  0  0  0  0  0  0  0
   32.8200   13.5970   20.3890 O   0  0  0  0  0  0  0  0  0  0  0  0
   32.3740   12.5830   19.4370 C   0  0  0  0  0  0  0  0  0  0  0  0
   33.5510   11.7040   18.9500 C   0  0  0  0  0  0  0  0  0  0  0  0
   34.8070   11.8890   19.8620 N   0  0  0  0  0  0  0  0  0  0  0  0
   35.2640   13.3740   20.0060 C   0  0  0  0  0  0  0  0  0  0  0  0
   34.0380   14.3380   20.0430 C   0  0  0  0  0  0  0  0  0  0  0  0
   35.9780   10.9260   19.5170 C   0  0  0  0  0  0  0  0  0  0  0  0
   35.9350   10.3200   18.0860 C   0  0  0  0  0  0  0  0  0  0  0  0
   37.3270   10.8210   17.0630 S   0  0  0  0  0  0  0  0  0  0  0  0
   36.8520   11.0610   15.5720 O   0  0  0  0  0  0  0  0  0  0  0  0
   38.4650    9.7150   17.0920 O   0  0  0  0  0  0  0  0  0  0  0  0
   38.0140   12.2600   17.5990 O   0  0  0  0  0  0  0  0  0  0  0  0
   26.0750   31.1590    0.3620 O   0  0  0  0  0  0  0  0  0  0  0  0
   27.1700   30.4310    1.0050 C   0  0  0  0  0  0  0  0  0  0  0  0
   27.9570   31.3690    1.9530 C   0  0  0  0  0  0  0  0  0  0  0  0
   27.3180   32.7870    1.9640 N   0  0  0  0  0  0  0  0  0  0  0  0
   27.1170   33.3820    0.5410 C   0  0  0  0  0  0  0  0  0  0  0  0
   26.4570   32.3410   -0.4020 C   0  0  0  0  0  0  0  0  0  0  0  0
   28.1010   33.7410    2.8540 C   0  0  0  0  0  0  0  0  0  0  0  0
   27.7790   33.5950    4.3430 C   0  0  0  0  0  0  0  0  0  0  0  0
   28.6240   34.8620    5.2590 S   0  0  0  0  0  0  0  0  0  0  0  0
   29.1980   34.2950    6.6150 O   0  0  0  0  0  0  0  0  0  0  0  0
   27.6460   36.0820    5.5290 O   0  0  0  0  0  0  0  0  0  0  0  0
   29.9240   35.4350    4.3820 O   0  0  0  0  0  0  0  0  0  0  0  0
  1  6  1  0  0  0  0
  2  1  1  0  0  0  0
  3  2  1  0  0  0  0
  4  3  1  0  0  0  0
  4  5  1  0  0  0  0
  5  6  1  0  0  0  0
  7  4  1  0  0  0  0
  8  7  1  0  0  0  0
  9  8  1  0  0  0  0
  9 12  1  0  0  0  0
 10  9  1  0  0  0  0
 11  9  1  0  0  0  0
 14 13  1  0  0  0  0
 15 14  1  0  0  0  0
 15 16  1  0  0  0  0
 16 17  1  0  0  0  0
 17 18  1  0  0  0  0
 18 13  1  0  0  0  0
 19 16  1  0  0  0  0
 20 19  1  0  0  0  0
 21 23  1  0  0  0  0
 21 24  1  0  0  0  0
 21 20  1  0  0  0  0
 22 21  1  0  0  0  0
 25 26  1  0  0  0  0
 26 27  1  0  0  0  0
 27 28  1  0  0  0  0
 28 31  1  0  0  0  0
 29 28  1  0  0  0  0
 30 25  1  0  0  0  0
 30 29  1  0  0  0  0
 31 32  1  0  0  0  0
 32 33  1  0  0  0  0
 33 35  1  0  0  0  0
 33 34  1  0  0  0  0
 36 33  1  0  0  0  0
M  END
>  <REMARK>
 Selection 'resname MES'

$$$$
