./pdb_data/13GSGSHlig.pdb
 OpenBabel05082318563D

 40 38  0  0  1  0  0  0  0  0999 V2000
   14.6840   10.9610   23.5360 N   0  0  0  0  0  0  0  0  0  0  0  0
   14.6890   10.0760   24.7320 C   0  0  2  0  0  0  0  0  0  0  0  0
   15.7630    8.9850   24.5920 C   0  0  0  0  0  0  0  0  0  0  0  0
   16.2080    8.7440   23.4460 O   0  0  0  0  0  0  0  0  0  0  0  0
   16.1510    8.3860   25.6220 O   0  0  0  0  0  0  0  0  0  0  0  0
   13.3030    9.4480   24.9020 C   0  0  0  0  0  0  0  0  0  0  0  0
   13.1360    8.6610   26.1790 C   0  0  0  0  0  0  0  0  0  0  0  0
   11.7400    8.1090   26.3190 C   0  0  0  0  0  0  0  0  0  0  0  0
   10.9480    8.1380   25.3750 O   0  0  0  0  0  0  0  0  0  0  0  0
   11.4320    7.6220   27.5130 N   0  0  0  0  0  0  0  0  0  0  0  0
   10.1360    7.0320   27.8060 C   0  0  2  0  0  0  0  0  0  0  0  0
    9.6230    7.6440   29.0910 C   0  0  0  0  0  0  0  0  0  0  0  0
   10.4060    8.0580   29.9460 O   0  0  0  0  0  0  0  0  0  0  0  0
   10.2580    5.5210   28.0140 C   0  0  0  0  0  0  0  0  0  0  0  0
   11.4140    4.6710   26.9150 S   0  0  0  0  0  0  0  0  0  0  0  0
    8.3040    7.6850   29.2300 N   0  0  0  0  0  0  0  0  0  0  0  0
    7.7090    8.2420   30.4270 C   0  0  0  0  0  0  0  0  0  0  0  0
    7.0720    9.5970   30.1880 C   0  0  0  0  0  0  0  0  0  0  0  0
    7.5360   10.3270   29.2850 O   0  0  0  0  0  0  0  0  0  0  0  0
    6.1080    9.9330   30.9080 O   0  0  0  0  0  0  0  0  0  0  0  0
   16.8540   13.0610   10.2520 N   0  0  0  0  0  0  0  0  0  0  0  0
   17.1000   13.8600    9.0180 C   0  0  2  0  0  0  0  0  0  0  0  0
   17.9370   15.0950    9.3630 C   0  0  0  0  0  0  0  0  0  0  0  0
   17.9980   15.4200   10.5690 O   0  0  0  0  0  0  0  0  0  0  0  0
   18.5100   15.7240    8.4390 O   0  0  0  0  0  0  0  0  0  0  0  0
   15.7640   14.2790    8.3890 C   0  0  0  0  0  0  0  0  0  0  0  0
   15.9130   14.9940    7.0620 C   0  0  0  0  0  0  0  0  0  0  0  0
   14.5840   15.4560    6.5080 C   0  0  0  0  0  0  0  0  0  0  0  0
   13.5470   15.3400    7.1630 O   0  0  0  0  0  0  0  0  0  0  0  0
   14.6180   15.9660    5.2830 N   0  0  0  0  0  0  0  0  0  0  0  0
   13.4310   16.4830    4.6140 C   0  0  2  0  0  0  0  0  0  0  0  0
   13.3740   15.8980    3.2130 C   0  0  0  0  0  0  0  0  0  0  0  0
   14.4090   15.6250    2.6100 O   0  0  0  0  0  0  0  0  0  0  0  0
   13.5020   18.0080    4.5070 C   0  0  0  0  0  0  0  0  0  0  0  0
   14.4850   18.8410    5.7960 S   0  0  0  0  0  0  0  0  0  0  0  0
   12.1660   15.7130    2.6930 N   0  0  0  0  0  0  0  0  0  0  0  0
   12.0230   15.1550    1.3600 C   0  0  0  0  0  0  0  0  0  0  0  0
   11.4890   13.7330    1.3990 C   0  0  0  0  0  0  0  0  0  0  0  0
   11.7170   13.0310    2.4120 O   0  0  0  0  0  0  0  0  0  0  0  0
   10.8400   13.3130    0.4130 O   0  0  0  0  0  0  0  0  0  0  0  0
  2  1  1  6  0  0  0
  2  6  1  0  0  0  0
  3  2  1  0  0  0  0
  3  5  1  0  0  0  0
  4  3  2  0  0  0  0
  6  7  1  0  0  0  0
  7  8  1  0  0  0  0
  8 10  1  0  0  0  0
  9  8  2  0  0  0  0
 10 11  1  0  0  0  0
 11 14  1  1  0  0  0
 11 12  1  0  0  0  0
 12 16  1  0  0  0  0
 12 13  2  0  0  0  0
 15 14  1  0  0  0  0
 16 17  1  0  0  0  0
 18 17  1  0  0  0  0
 18 20  1  0  0  0  0
 19 18  2  0  0  0  0
 22 23  1  0  0  0  0
 22 21  1  1  0  0  0
 23 24  1  0  0  0  0
 25 23  2  0  0  0  0
 26 22  1  0  0  0  0
 27 26  1  0  0  0  0
 28 27  1  0  0  0  0
 28 29  2  0  0  0  0
 30 28  1  0  0  0  0
 31 34  1  6  0  0  0
 31 30  1  0  0  0  0
 32 31  1  0  0  0  0
 33 32  2  0  0  0  0
 34 35  1  0  0  0  0
 36 32  1  0  0  0  0
 37 38  1  0  0  0  0
 37 36  1  0  0  0  0
 38 39  1  0  0  0  0
 40 38  2  0  0  0  0
M  END
>  <REMARK>
 Selection 'resname GSH'

$$$$
