./pdb_data/13GSSASlig.pdb
 OpenBabel04272312383D

 56 60  0  0  0  0  0  0  0  0999 V2000
    5.8670   -2.5540   31.8180 C   0  0  0  0  0  0  0  0  0  0  0  0
    7.1800   -2.7850   32.3140 C   0  0  0  0  0  0  0  0  0  0  0  0
    7.8020   -3.9490   31.8790 C   0  0  0  0  0  0  0  0  0  0  0  0
    7.1330   -4.8190   30.9940 C   0  0  0  0  0  0  0  0  0  0  0  0
    5.8130   -4.5360   30.5330 C   0  0  0  0  0  0  0  0  0  0  0  0
    5.2380   -3.4050   30.9670 N   0  0  0  0  0  0  0  0  0  0  0  0
    5.2110   -1.4210   32.1920 N   0  0  0  0  0  0  0  0  0  0  0  0
    5.8290    0.1150   32.4160 S   0  0  0  0  0  0  0  0  0  0  0  0
    7.0230   -0.0030   33.4960 O   0  0  0  0  0  0  0  0  0  0  0  0
    4.5660    0.8990   32.9650 O   0  0  0  0  0  0  0  0  0  0  0  0
    6.2720    0.8680   30.9180 C   0  0  0  0  0  0  0  0  0  0  0  0
    7.5860    0.7200   30.4370 C   0  0  0  0  0  0  0  0  0  0  0  0
    7.9780    1.3990   29.2670 C   0  0  0  0  0  0  0  0  0  0  0  0
    7.0420    2.2260   28.5850 C   0  0  0  0  0  0  0  0  0  0  0  0
    5.6770    2.3740   29.0760 C   0  0  0  0  0  0  0  0  0  0  0  0
    5.2940    1.6840   30.2540 C   0  0  0  0  0  0  0  0  0  0  0  0
    7.5330    2.8070   27.5840 N   0  0  0  0  0  0  0  0  0  0  0  0
    6.8870    3.6750   26.7290 N   0  0  0  0  0  0  0  0  0  0  0  0
    7.2760    4.3130   25.7040 C   0  0  0  0  0  0  0  0  0  0  0  0
    8.6210    4.2950   25.2270 C   0  0  0  0  0  0  0  0  0  0  0  0
    9.0530    5.0660   24.0980 C   0  0  0  0  0  0  0  0  0  0  0  0
    8.0250    5.9100   23.4420 C   0  0  0  0  0  0  0  0  0  0  0  0
    6.6870    5.9210   23.9130 C   0  0  0  0  0  0  0  0  0  0  0  0
    6.3150    5.1350   25.0330 C   0  0  0  0  0  0  0  0  0  0  0  0
   10.5100    4.9270   23.6970 C   0  0  0  0  0  0  0  0  0  0  0  0
    8.1980    6.7580   22.3650 O   0  0  0  0  0  0  0  0  0  0  0  0
   11.3020    4.1720   24.3260 O   0  0  0  0  0  0  0  0  0  0  0  0
   10.9540    5.5790   22.7260 O   0  0  0  0  0  0  0  0  0  0  0  0
    9.7080   25.4620   -0.7120 C   0  0  0  0  0  0  0  0  0  0  0  0
   11.0850   25.8330   -0.7810 C   0  0  0  0  0  0  0  0  0  0  0  0
   11.4160   27.0550   -0.1750 C   0  0  0  0  0  0  0  0  0  0  0  0
   10.4490   27.8360    0.4990 C   0  0  0  0  0  0  0  0  0  0  0  0
    9.0970   27.3940    0.5170 C   0  0  0  0  0  0  0  0  0  0  0  0
    8.8050   26.2180   -0.0650 N   0  0  0  0  0  0  0  0  0  0  0  0
    9.2140   24.2980   -1.2240 N   0  0  0  0  0  0  0  0  0  0  0  0
   10.0370   22.8570   -1.2140 S   0  0  0  0  0  0  0  0  0  0  0  0
   11.4680   23.0890   -1.8970 O   0  0  0  0  0  0  0  0  0  0  0  0
    9.0750   21.9850   -2.1180 O   0  0  0  0  0  0  0  0  0  0  0  0
   10.1400   22.1160    0.3650 C   0  0  0  0  0  0  0  0  0  0  0  0
   11.2480   22.3470    1.2260 C   0  0  0  0  0  0  0  0  0  0  0  0
   11.3470   21.6790    2.4700 C   0  0  0  0  0  0  0  0  0  0  0  0
   10.3360   20.7880    2.8670 C   0  0  0  0  0  0  0  0  0  0  0  0
    9.1940   20.5460    1.9890 C   0  0  0  0  0  0  0  0  0  0  0  0
    9.1000   21.2160    0.7470 C   0  0  0  0  0  0  0  0  0  0  0  0
   10.5480   20.2410    3.9700 N   0  0  0  0  0  0  0  0  0  0  0  0
    9.6750   19.3450    4.5290 N   0  0  0  0  0  0  0  0  0  0  0  0
    9.7660   18.7260    5.6200 C   0  0  0  0  0  0  0  0  0  0  0  0
   10.9120   18.8110    6.4790 C   0  0  0  0  0  0  0  0  0  0  0  0
   10.9960   18.0550    7.7020 C   0  0  0  0  0  0  0  0  0  0  0  0
    9.8910   17.1730    8.0340 C   0  0  0  0  0  0  0  0  0  0  0  0
    8.7610   17.0950    7.1870 C   0  0  0  0  0  0  0  0  0  0  0  0
    8.6930   17.8530    5.9820 C   0  0  0  0  0  0  0  0  0  0  0  0
   12.2160   18.1750    8.5670 C   0  0  0  0  0  0  0  0  0  0  0  0
    9.8370   16.3700    9.1500 O   0  0  0  0  0  0  0  0  0  0  0  0
   13.0960   18.9600    8.1700 O   0  0  0  0  0  0  0  0  0  0  0  0
   12.3680   17.5290    9.6530 O   0  0  0  0  0  0  0  0  0  0  0  0
  1  7  1  0  0  0  0
  1  2  1  0  0  0  0
  3  2  2  0  0  0  0
  4  3  1  0  0  0  0
  5  6  1  0  0  0  0
  5  4  2  0  0  0  0
  6  1  2  0  0  0  0
  7  8  1  0  0  0  0
  8 10  2  0  0  0  0
  8  9  2  0  0  0  0
 11  8  1  0  0  0  0
 12 11  1  0  0  0  0
 13 12  2  0  0  0  0
 14 15  2  0  0  0  0
 14 13  1  0  0  0  0
 15 16  1  0  0  0  0
 16 11  2  0  0  0  0
 17 14  1  0  0  0  0
 18 17  2  0  0  0  0
 19 18  1  0  0  0  0
 20 19  1  0  0  0  0
 21 20  2  0  0  0  0
 22 23  2  0  0  0  0
 22 21  1  0  0  0  0
 23 24  1  0  0  0  0
 24 19  2  0  0  0  0
 25 21  1  0  0  0  0
 25 27  1  0  0  0  0
 26 22  1  0  0  0  0
 28 25  2  0  0  0  0
 29 34  2  0  0  0  0
 30 29  1  0  0  0  0
 30 31  2  0  0  0  0
 31 32  1  0  0  0  0
 32 33  2  0  0  0  0
 34 33  1  0  0  0  0
 35 36  1  0  0  0  0
 35 29  1  0  0  0  0
 36 39  1  0  0  0  0
 37 36  2  0  0  0  0
 38 36  2  0  0  0  0
 39 44  2  0  0  0  0
 39 40  1  0  0  0  0
 40 41  2  0  0  0  0
 41 42  1  0  0  0  0
 42 45  1  0  0  0  0
 43 42  2  0  0  0  0
 44 43  1  0  0  0  0
 45 46  2  0  0  0  0
 46 47  1  0  0  0  0
 47 52  2  0  0  0  0
 47 48  1  0  0  0  0
 48 49  2  0  0  0  0
 49 50  1  0  0  0  0
 49 53  1  0  0  0  0
 50 54  1  0  0  0  0
 51 50  2  0  0  0  0
 52 51  1  0  0  0  0
 53 56  1  0  0  0  0
 55 53  2  0  0  0  0
M  END
>  <REMARK>
 Selection 'resname SAS'

$$$$
