./pdb_data/154LNAGlig.pdb
 OpenBabel05082318593D

 43 45  0  0  1  0  0  0  0  0999 V2000
   11.6450   29.4820   21.7870 C   0  0  2  0  0  0  0  0  0  0  0  0
   12.6040   30.5380   21.1910 C   0  0  1  0  0  0  0  0  0  0  0  0
   13.7270   31.0710   22.1250 C   0  0  2  0  0  0  0  0  0  0  0  0
   13.2070   31.1920   23.5790 C   0  0  1  0  0  0  0  0  0  0  0  0
   12.3950   29.9350   23.9910 C   0  0  1  0  0  0  0  0  0  0  0  0
   11.7960   29.9580   25.3990 C   0  0  0  0  0  0  0  0  0  0  0  0
   12.1580   30.6810   18.7600 C   0  0  0  0  0  0  0  0  0  0  0  0
   12.8250   30.8200   17.4150 C   0  0  0  0  0  0  0  0  0  0  0  0
   12.9450   30.2480   19.7760 N   0  0  0  0  0  0  0  0  0  0  0  0
   10.4460   29.5340   21.0970 O   0  0  0  0  0  0  0  0  0  0  0  0
   14.1380   32.3840   21.6730 O   0  0  0  0  0  0  0  0  0  0  0  0
   14.3110   31.3950   24.5000 O   0  0  0  0  0  0  0  0  0  0  0  0
   11.2830   29.7880   23.1210 O   0  0  0  0  0  0  0  0  0  0  0  0
   10.5850   30.7330   25.5560 O   0  0  0  0  0  0  0  0  0  0  0  0
   11.3590   31.6560   18.7900 O   0  0  0  0  0  0  0  0  0  0  0  0
   14.5360   32.7100   24.9690 C   0  0  1  0  0  0  0  0  0  0  0  0
   15.3360   32.7290   26.2730 C   0  0  1  0  0  0  0  0  0  0  0  0
   15.8860   34.1330   26.6430 C   0  0  2  0  0  0  0  0  0  0  0  0
   16.4210   34.9120   25.4440 C   0  0  1  0  0  0  0  0  0  0  0  0
   15.3780   34.8810   24.3450 C   0  0  1  0  0  0  0  0  0  0  0  0
   15.7930   35.6390   23.0800 C   0  0  0  0  0  0  0  0  0  0  0  0
   15.0140   30.8880   27.8240 C   0  0  0  0  0  0  0  0  0  0  0  0
   14.1200   30.3020   28.8720 C   0  0  0  0  0  0  0  0  0  0  0  0
   14.5940   32.0780   27.3910 N   0  0  0  0  0  0  0  0  0  0  0  0
   16.9230   33.9560   27.6090 O   0  0  0  0  0  0  0  0  0  0  0  0
   16.6450   36.3050   25.7490 O   0  0  0  0  0  0  0  0  0  0  0  0
   15.1830   33.5000   23.9710 O   0  0  0  0  0  0  0  0  0  0  0  0
   17.0150   34.8160   22.8870 O   0  0  0  0  0  0  0  0  0  0  0  0
   16.1370   30.4180   27.4860 O   0  0  0  0  0  0  0  0  0  0  0  0
   17.9420   36.5440   26.2110 C   0  0  1  0  0  0  0  0  0  0  0  0
   18.3560   37.9610   25.7890 C   0  0  1  0  0  0  0  0  0  0  0  0
   19.6500   38.3610   26.4720 C   0  0  2  0  0  0  0  0  0  0  0  0
   19.4990   38.2920   27.9720 C   0  0  1  0  0  0  0  0  0  0  0  0
   19.0360   36.8660   28.3720 C   0  0  1  0  0  0  0  0  0  0  0  0
   18.5640   36.6940   29.8320 C   0  0  0  0  0  0  0  0  0  0  0  0
   17.8300   38.8050   23.5980 C   0  0  0  0  0  0  0  0  0  0  0  0
   17.8750   38.5540   22.1180 C   0  0  0  0  0  0  0  0  0  0  0  0
   18.5780   38.0080   24.3580 N   0  0  0  0  0  0  0  0  0  0  0  0
   20.0150   39.6620   26.0140 O   0  0  0  0  0  0  0  0  0  0  0  0
   20.8180   38.4870   28.4800 O   0  0  0  0  0  0  0  0  0  0  0  0
   17.8990   36.4400   27.6190 O   0  0  0  0  0  0  0  0  0  0  0  0
   18.1480   35.3390   30.1050 O   0  0  0  0  0  0  0  0  0  0  0  0
   17.0760   39.6760   24.0640 O   0  0  0  0  0  0  0  0  0  0  0  0
  1 10  1  6  0  0  0
  1 13  1  0  0  0  0
  2  9  1  6  0  0  0
  2  1  1  0  0  0  0
  2  3  1  0  0  0  0
  3 11  1  6  0  0  0
  3  4  1  0  0  0  0
  4  5  1  0  0  0  0
  4 12  1  1  0  0  0
  5  6  1  1  0  0  0
  6 14  1  0  0  0  0
  7 15  2  0  0  0  0
  7  9  1  0  0  0  0
  8  7  1  0  0  0  0
 13  5  1  0  0  0  0
 16 12  1  6  0  0  0
 16 17  1  0  0  0  0
 17 18  1  0  0  0  0
 17 24  1  1  0  0  0
 18 25  1  1  0  0  0
 19 26  1  1  0  0  0
 19 18  1  0  0  0  0
 20 21  1  6  0  0  0
 20 19  1  0  0  0  0
 22 23  1  0  0  0  0
 24 22  1  0  0  0  0
 27 20  1  0  0  0  0
 27 16  1  0  0  0  0
 28 21  1  0  0  0  0
 29 22  2  0  0  0  0
 30 26  1  6  0  0  0
 30 41  1  0  0  0  0
 31 38  1  6  0  0  0
 31 30  1  0  0  0  0
 31 32  1  0  0  0  0
 32 39  1  1  0  0  0
 32 33  1  0  0  0  0
 33 34  1  0  0  0  0
 33 40  1  1  0  0  0
 34 35  1  1  0  0  0
 35 42  1  0  0  0  0
 36 43  2  0  0  0  0
 36 38  1  0  0  0  0
 37 36  1  0  0  0  0
 41 34  1  0  0  0  0
M  END
>  <REMARK>
 Selection 'resname NAG'

$$$$
