./pdb_data/17GSGTXlig.pdb
 OpenBabel05082318563D

 52 50  0  0  1  0  0  0  0  0999 V2000
   14.7480   10.9550   23.4130 N   0  0  0  0  0  0  0  0  0  0  0  0
   14.6250   10.0570   24.5880 C   0  0  2  0  0  0  0  0  0  0  0  0
   15.7410    9.0150   24.5230 C   0  0  0  0  0  0  0  0  0  0  0  0
   16.1720    8.5240   25.5870 O   0  0  0  0  0  0  0  0  0  0  0  0
   16.2040    8.7280   23.3990 O   0  0  0  0  0  0  0  0  0  0  0  0
   13.2510    9.3850   24.5940 C   0  0  0  0  0  0  0  0  0  0  0  0
   12.9790    8.5350   25.8260 C   0  0  0  0  0  0  0  0  0  0  0  0
   11.5220    8.2100   25.9860 C   0  0  0  0  0  0  0  0  0  0  0  0
   10.7650    8.2470   25.0170 O   0  0  0  0  0  0  0  0  0  0  0  0
   11.1160    7.8620   27.1980 N   0  0  0  0  0  0  0  0  0  0  0  0
    9.7140    7.5550   27.4490 C   0  0  2  0  0  0  0  0  0  0  0  0
    9.3530    7.8290   28.8970 C   0  0  0  0  0  0  0  0  0  0  0  0
   10.2290    7.8700   29.7690 O   0  0  0  0  0  0  0  0  0  0  0  0
    9.3780    6.1120   27.0670 C   0  0  0  0  0  0  0  0  0  0  0  0
   10.2500    4.8710   28.0150 S   0  0  0  0  0  0  0  0  0  0  0  0
    9.9000    3.4110   27.0250 C   0  0  0  0  0  0  0  0  0  0  0  0
    8.5040    2.8390   27.2200 C   0  0  0  0  0  0  0  0  0  0  0  0
    8.2650    2.3660   28.6430 C   0  0  0  0  0  0  0  0  0  0  0  0
    7.0830    1.4150   28.6830 C   0  0  0  0  0  0  0  0  0  0  0  0
    6.7920    0.9130   30.0850 C   0  0  0  0  0  0  0  0  0  0  0  0
    6.0710    1.9550   30.8970 C   0  0  0  0  0  0  0  0  0  0  0  0
    8.0620    8.0330   29.1330 N   0  0  0  0  0  0  0  0  0  0  0  0
    7.5750    8.3350   30.4620 C   0  0  0  0  0  0  0  0  0  0  0  0
    6.9030    9.6940   30.4160 C   0  0  0  0  0  0  0  0  0  0  0  0
    6.1680   10.0220   31.3650 O   0  0  0  0  0  0  0  0  0  0  0  0
    7.0900   10.4250   29.4160 O   0  0  0  0  0  0  0  0  0  0  0  0
   16.9590   12.9150   10.0560 N   0  0  0  0  0  0  0  0  0  0  0  0
   17.1230   13.7500    8.8420 C   0  0  2  0  0  0  0  0  0  0  0  0
   18.0160   14.9290    9.1870 C   0  0  0  0  0  0  0  0  0  0  0  0
   18.7610   15.4110    8.3020 O   0  0  0  0  0  0  0  0  0  0  0  0
   17.9850   15.3270   10.3650 O   0  0  0  0  0  0  0  0  0  0  0  0
   15.7620   14.2380    8.3630 C   0  0  0  0  0  0  0  0  0  0  0  0
   15.8050   15.0780    7.1050 C   0  0  0  0  0  0  0  0  0  0  0  0
   14.4430   15.2330    6.5040 C   0  0  0  0  0  0  0  0  0  0  0  0
   13.4350   15.0410    7.1840 O   0  0  0  0  0  0  0  0  0  0  0  0
   14.3960   15.5790    5.2270 N   0  0  0  0  0  0  0  0  0  0  0  0
   13.1240   15.7290    4.5440 C   0  0  2  0  0  0  0  0  0  0  0  0
   13.2970   15.4690    3.0580 C   0  0  0  0  0  0  0  0  0  0  0  0
   14.4060   15.5580    2.5150 O   0  0  0  0  0  0  0  0  0  0  0  0
   12.5140   17.1060    4.7970 C   0  0  0  0  0  0  0  0  0  0  0  0
   13.4910   18.4350    4.1270 S   0  0  0  0  0  0  0  0  0  0  0  0
   12.6970   19.8540    4.8870 C   0  0  0  0  0  0  0  0  0  0  0  0
   11.3690   20.2440    4.2580 C   0  0  0  0  0  0  0  0  0  0  0  0
   11.5340   20.7500    2.8420 C   0  0  0  0  0  0  0  0  0  0  0  0
   10.3570   21.6280    2.4640 C   0  0  0  0  0  0  0  0  0  0  0  0
   10.4490   22.1340    1.0340 C   0  0  0  0  0  0  0  0  0  0  0  0
   10.1380   21.0340    0.0440 C   0  0  0  0  0  0  0  0  0  0  0  0
   12.1840   15.1720    2.4060 N   0  0  0  0  0  0  0  0  0  0  0  0
   12.1980   14.8530    0.9960 C   0  0  0  0  0  0  0  0  0  0  0  0
   11.6930   13.4330    0.8390 C   0  0  0  0  0  0  0  0  0  0  0  0
   11.3450   13.0520   -0.2930 O   0  0  0  0  0  0  0  0  0  0  0  0
   11.6160   12.7060    1.8580 O   0  0  0  0  0  0  0  0  0  0  0  0
  2  1  1  6  0  0  0
  2  6  1  0  0  0  0
  3  2  1  0  0  0  0
  3  4  1  0  0  0  0
  5  3  2  0  0  0  0
  6  7  1  0  0  0  0
  7  8  1  0  0  0  0
  8 10  1  0  0  0  0
  9  8  2  0  0  0  0
 10 11  1  0  0  0  0
 11 14  1  1  0  0  0
 11 12  1  0  0  0  0
 12 22  1  0  0  0  0
 12 13  2  0  0  0  0
 14 15  1  0  0  0  0
 16 17  1  0  0  0  0
 16 15  1  0  0  0  0
 17 18  1  0  0  0  0
 18 19  1  0  0  0  0
 19 20  1  0  0  0  0
 20 21  1  0  0  0  0
 22 23  1  0  0  0  0
 24 23  1  0  0  0  0
 24 25  1  0  0  0  0
 26 24  2  0  0  0  0
 28 29  1  0  0  0  0
 28 27  1  1  0  0  0
 29 31  1  0  0  0  0
 30 29  2  0  0  0  0
 32 28  1  0  0  0  0
 33 32  1  0  0  0  0
 34 33  1  0  0  0  0
 34 35  2  0  0  0  0
 36 34  1  0  0  0  0
 37 40  1  6  0  0  0
 37 36  1  0  0  0  0
 38 37  1  0  0  0  0
 39 38  2  0  0  0  0
 41 40  1  0  0  0  0
 41 42  1  0  0  0  0
 43 42  1  0  0  0  0
 44 43  1  0  0  0  0
 45 44  1  0  0  0  0
 46 45  1  0  0  0  0
 47 46  1  0  0  0  0
 48 38  1  0  0  0  0
 49 48  1  0  0  0  0
 50 49  1  0  0  0  0
 50 52  1  0  0  0  0
 51 50  2  0  0  0  0
M  END
>  <REMARK>
 Selection 'resname GTX'

$$$$
