./pdb_data/17GSMESlig.pdb
 OpenBabel04272312383D

 36 36  0  0  0  0  0  0  0  0999 V2000
   22.0190   -6.5030   36.0580 O   0  0  0  0  0  0  0  0  0  0  0  0
   23.0750   -5.5780   35.6940 C   0  0  0  0  0  0  0  0  0  0  0  0
   24.2510   -6.3300   35.0330 C   0  0  0  0  0  0  0  0  0  0  0  0
   23.9720   -7.8520   34.9470 N   0  0  0  0  0  0  0  0  0  0  0  0
   23.4880   -8.4650   36.2850 C   0  0  0  0  0  0  0  0  0  0  0  0
   22.4130   -7.5790   36.9480 C   0  0  0  0  0  0  0  0  0  0  0  0
   25.1590   -8.6270   34.3460 C   0  0  0  0  0  0  0  0  0  0  0  0
   25.2430   -8.5240   32.8150 C   0  0  0  0  0  0  0  0  0  0  0  0
   26.5120   -9.5960   32.1610 S   0  0  0  0  0  0  0  0  0  0  0  0
   27.3360   -8.8620   31.0270 O   0  0  0  0  0  0  0  0  0  0  0  0
   25.8760  -10.9270   31.5850 O   0  0  0  0  0  0  0  0  0  0  0  0
   27.5890  -10.0310   33.3610 O   0  0  0  0  0  0  0  0  0  0  0  0
   32.8010   13.5650   20.3540 O   0  0  0  0  0  0  0  0  0  0  0  0
   32.4020   12.5580   19.3780 C   0  0  0  0  0  0  0  0  0  0  0  0
   33.6220   11.7300   18.8930 C   0  0  0  0  0  0  0  0  0  0  0  0
   34.8650   11.9660   19.7980 N   0  0  0  0  0  0  0  0  0  0  0  0
   35.2420   13.4670   19.9460 C   0  0  0  0  0  0  0  0  0  0  0  0
   33.9760   14.3600   20.0110 C   0  0  0  0  0  0  0  0  0  0  0  0
   36.0830   11.0710   19.4290 C   0  0  0  0  0  0  0  0  0  0  0  0
   35.9640   10.3430   18.0690 C   0  0  0  0  0  0  0  0  0  0  0  0
   37.2750   10.8020   16.9190 S   0  0  0  0  0  0  0  0  0  0  0  0
   36.6820   11.0050   15.4680 O   0  0  0  0  0  0  0  0  0  0  0  0
   38.4150    9.6950   16.8870 O   0  0  0  0  0  0  0  0  0  0  0  0
   38.0010   12.2530   17.3530 O   0  0  0  0  0  0  0  0  0  0  0  0
   25.9210   31.2120    0.2990 O   0  0  0  0  0  0  0  0  0  0  0  0
   26.9900   30.4350    0.9030 C   0  0  0  0  0  0  0  0  0  0  0  0
   27.8170   31.3080    1.8720 C   0  0  0  0  0  0  0  0  0  0  0  0
   27.2900   32.7640    1.8980 N   0  0  0  0  0  0  0  0  0  0  0  0
   27.1010   33.3650    0.4810 C   0  0  0  0  0  0  0  0  0  0  0  0
   26.3410   32.3870   -0.4420 C   0  0  0  0  0  0  0  0  0  0  0  0
   28.1330   33.6770    2.8120 C   0  0  0  0  0  0  0  0  0  0  0  0
   27.6700   33.6800    4.2800 C   0  0  0  0  0  0  0  0  0  0  0  0
   28.5680   34.8880    5.2530 S   0  0  0  0  0  0  0  0  0  0  0  0
   29.0550   34.2570    6.6200 O   0  0  0  0  0  0  0  0  0  0  0  0
   27.6680   36.1620    5.5330 O   0  0  0  0  0  0  0  0  0  0  0  0
   29.9290   35.4120    4.4410 O   0  0  0  0  0  0  0  0  0  0  0  0
  1  6  1  0  0  0  0
  2  1  1  0  0  0  0
  3  2  1  0  0  0  0
  4  3  1  0  0  0  0
  4  5  1  0  0  0  0
  5  6  1  0  0  0  0
  7  4  1  0  0  0  0
  8  7  1  0  0  0  0
  9  8  1  0  0  0  0
  9 12  1  0  0  0  0
 10  9  1  0  0  0  0
 11  9  1  0  0  0  0
 14 13  1  0  0  0  0
 15 14  1  0  0  0  0
 15 16  1  0  0  0  0
 16 17  1  0  0  0  0
 17 18  1  0  0  0  0
 18 13  1  0  0  0  0
 19 16  1  0  0  0  0
 20 19  1  0  0  0  0
 21 24  1  0  0  0  0
 21 20  1  0  0  0  0
 22 21  1  0  0  0  0
 23 21  1  0  0  0  0
 25 26  1  0  0  0  0
 26 27  1  0  0  0  0
 27 28  1  0  0  0  0
 28 31  1  0  0  0  0
 29 28  1  0  0  0  0
 30 25  1  0  0  0  0
 30 29  1  0  0  0  0
 31 32  1  0  0  0  0
 32 33  1  0  0  0  0
 33 35  1  0  0  0  0
 33 34  1  0  0  0  0
 36 33  1  0  0  0  0
M  END
>  <REMARK>
 Selection 'resname MES'

$$$$
