./pdb_data/18GSGDNlig.pdb
 OpenBabel04272312383D

 64 64  0  0  1  0  0  0  0  0999 V2000
   14.8960   10.8130   23.3390 N   0  0  0  0  0  0  0  0  0  0  0  0
   14.7930    9.8910   24.5190 C   0  0  2  0  0  0  0  0  0  0  0  0
   15.9270    8.9270   24.6130 C   0  0  0  0  0  0  0  0  0  0  0  0
   16.4000    8.4030   25.5780 O   0  0  0  0  0  0  0  0  0  0  0  0
   16.4120    8.7010   23.3320 O   0  0  0  0  0  0  0  0  0  0  0  0
   13.4240    9.2570   24.5300 C   0  0  0  0  0  0  0  0  0  0  0  0
   13.1280    8.6750   25.9740 C   0  0  0  0  0  0  0  0  0  0  0  0
   11.7150    8.0630   25.9660 C   0  0  0  0  0  0  0  0  0  0  0  0
   11.0760    8.0210   24.8860 O   0  0  0  0  0  0  0  0  0  0  0  0
   11.3370    7.6470   27.1760 N   0  0  0  0  0  0  0  0  0  0  0  0
   10.0470    7.0410   27.4730 C   0  0  2  0  0  0  0  0  0  0  0  0
    9.6000    7.4710   28.8700 C   0  0  0  0  0  0  0  0  0  0  0  0
   10.4930    7.6570   29.6850 O   0  0  0  0  0  0  0  0  0  0  0  0
   10.0990    5.4980   27.2980 C   0  0  0  0  0  0  0  0  0  0  0  0
    8.4510    4.8520   27.0970 S   0  0  0  0  0  0  0  0  0  0  0  0
    8.3190    7.6240   29.1420 N   0  0  0  0  0  0  0  0  0  0  0  0
    7.9110    8.0410   30.5050 C   0  0  0  0  0  0  0  0  0  0  0  0
    7.2400    9.3680   30.4860 C   0  0  0  0  0  0  0  0  0  0  0  0
    7.3570   10.1770   29.5250 O   0  0  0  0  0  0  0  0  0  0  0  0
    6.4510    9.8150   31.4820 O   0  0  0  0  0  0  0  0  0  0  0  0
    7.6550    5.3610   25.6460 C   0  0  0  0  0  0  0  0  0  0  0  0
    6.2560    5.2140   25.5370 C   0  0  0  0  0  0  0  0  0  0  0  0
    5.6330    5.6570   24.3310 C   0  0  0  0  0  0  0  0  0  0  0  0
    6.4190    6.2190   23.2790 C   0  0  0  0  0  0  0  0  0  0  0  0
    7.8180    6.3540   23.3950 C   0  0  0  0  0  0  0  0  0  0  0  0
    8.4380    5.9300   24.5750 C   0  0  0  0  0  0  0  0  0  0  0  0
    5.3260    4.6500   26.5370 N   0  0  0  0  0  0  0  0  0  0  0  0
    5.6620    4.3920   27.7000 O   0  0  0  0  0  0  0  0  0  0  0  0
    4.1520    4.4420   26.0850 O   0  0  0  0  0  0  0  0  0  0  0  0
    5.7870    6.6600   22.0940 N   0  0  0  0  0  0  0  0  0  0  0  0
    4.4380    6.5380   21.9590 O   0  0  0  0  0  0  0  0  0  0  0  0
    6.4820    7.2160   21.0410 O   0  0  0  0  0  0  0  0  0  0  0  0
   17.0460   12.9840    9.7760 N   0  0  0  0  0  0  0  0  0  0  0  0
   17.1410   13.9190    8.6000 C   0  0  2  0  0  0  0  0  0  0  0  0
   18.1060   15.0330    8.8130 C   0  0  0  0  0  0  0  0  0  0  0  0
   18.8070   15.6190    8.0240 O   0  0  0  0  0  0  0  0  0  0  0  0
   18.0940   15.3280   10.1680 O   0  0  0  0  0  0  0  0  0  0  0  0
   15.7610   14.3810    8.1990 C   0  0  0  0  0  0  0  0  0  0  0  0
   15.8400   14.8210    6.6720 C   0  0  0  0  0  0  0  0  0  0  0  0
   14.4510   15.2800    6.1940 C   0  0  0  0  0  0  0  0  0  0  0  0
   13.4910   15.2530    7.0040 O   0  0  0  0  0  0  0  0  0  0  0  0
   14.4570   15.6540    4.9150 N   0  0  0  0  0  0  0  0  0  0  0  0
   13.2830   16.1190    4.1940 C   0  0  2  0  0  0  0  0  0  0  0  0
   13.3710   15.6370    2.7440 C   0  0  0  0  0  0  0  0  0  0  0  0
   14.4850   15.5930    2.2590 O   0  0  0  0  0  0  0  0  0  0  0  0
   13.1110   17.6640    4.3360 C   0  0  0  0  0  0  0  0  0  0  0  0
   11.4200   18.1660    4.1340 S   0  0  0  0  0  0  0  0  0  0  0  0
   12.2870   15.2900    2.0870 N   0  0  0  0  0  0  0  0  0  0  0  0
   12.4250   14.8330    0.6950 C   0  0  0  0  0  0  0  0  0  0  0  0
   12.1180   13.3920    0.5210 C   0  0  0  0  0  0  0  0  0  0  0  0
   12.0730   12.5780    1.4800 O   0  0  0  0  0  0  0  0  0  0  0  0
   11.8570   12.8470   -0.6870 O   0  0  0  0  0  0  0  0  0  0  0  0
   10.3170   17.5040    5.2810 C   0  0  0  0  0  0  0  0  0  0  0  0
    8.9420   17.4410    4.9580 C   0  0  0  0  0  0  0  0  0  0  0  0
    8.0570   16.8810    5.9180 C   0  0  0  0  0  0  0  0  0  0  0  0
    8.5690   16.4070    7.1660 C   0  0  0  0  0  0  0  0  0  0  0  0
    9.9410   16.4800    7.4830 C   0  0  0  0  0  0  0  0  0  0  0  0
   10.8140   17.0270    6.5520 C   0  0  0  0  0  0  0  0  0  0  0  0
    8.2990   17.8940    3.7100 N   0  0  0  0  0  0  0  0  0  0  0  0
    8.9500   18.2390    2.7190 O   0  0  0  0  0  0  0  0  0  0  0  0
    7.0260   17.8990    3.7530 O   0  0  0  0  0  0  0  0  0  0  0  0
    7.6860   15.8410    8.1120 N   0  0  0  0  0  0  0  0  0  0  0  0
    6.3520   15.7500    7.8360 O   0  0  0  0  0  0  0  0  0  0  0  0
    8.1140   15.3520    9.3370 O   0  0  0  0  0  0  0  0  0  0  0  0
  2  1  1  6  0  0  0
  2  6  1  0  0  0  0
  2  3  1  0  0  0  0
  3  4  1  0  0  0  0
  5  3  2  0  0  0  0
  6  7  1  0  0  0  0
  8  7  1  0  0  0  0
  8 10  1  0  0  0  0
  9  8  2  0  0  0  0
 10 11  1  0  0  0  0
 11 14  1  1  0  0  0
 11 12  1  0  0  0  0
 12 16  1  0  0  0  0
 12 13  2  0  0  0  0
 15 14  1  0  0  0  0
 16 17  1  0  0  0  0
 18 17  1  0  0  0  0
 18 20  1  0  0  0  0
 19 18  2  0  0  0  0
 21 15  1  0  0  0  0
 22 21  1  0  0  0  0
 22 27  1  0  0  0  0
 23 22  2  0  0  0  0
 24 25  2  0  0  0  0
 24 23  1  0  0  0  0
 25 26  1  0  0  0  0
 26 21  2  0  0  0  0
 27 28  2  0  0  0  0
 29 27  2  0  0  0  0
 30 24  1  0  0  0  0
 31 30  2  0  0  0  0
 32 30  2  0  0  0  0
 34 35  1  0  0  0  0
 34 33  1  1  0  0  0
 35 37  1  0  0  0  0
 36 35  2  0  0  0  0
 38 34  1  0  0  0  0
 39 38  1  0  0  0  0
 40 39  1  0  0  0  0
 40 41  2  0  0  0  0
 42 40  1  0  0  0  0
 43 46  1  6  0  0  0
 43 42  1  0  0  0  0
 44 43  1  0  0  0  0
 45 44  2  0  0  0  0
 47 46  1  0  0  0  0
 47 53  1  0  0  0  0
 48 44  1  0  0  0  0
 49 48  1  0  0  0  0
 50 49  1  0  0  0  0
 50 51  1  0  0  0  0
 52 50  2  0  0  0  0
 53 58  1  0  0  0  0
 54 53  2  0  0  0  0
 54 55  1  0  0  0  0
 55 56  2  0  0  0  0
 56 57  1  0  0  0  0
 56 62  1  0  0  0  0
 58 57  2  0  0  0  0
 59 61  2  0  0  0  0
 59 54  1  0  0  0  0
 60 59  2  0  0  0  0
 62 64  2  0  0  0  0
 63 62  2  0  0  0  0
M  END
>  <REMARK>
 Selection 'resname GDN'

$$$$
