./pdb_data/18GSMESlig.pdb
 OpenBabel04272312383D

 24 24  0  0  0  0  0  0  0  0999 V2000
   22.8080   -6.0600   35.8490 O   0  0  0  0  0  0  0  0  0  0  0  0
   23.2020   -7.1910   36.6850 C   0  0  0  0  0  0  0  0  0  0  0  0
   24.1330   -8.1580   35.9060 C   0  0  0  0  0  0  0  0  0  0  0  0
   24.6110   -7.5460   34.5460 N   0  0  0  0  0  0  0  0  0  0  0  0
   24.9640   -6.0250   34.6030 C   0  0  0  0  0  0  0  0  0  0  0  0
   23.8830   -5.2020   35.3610 C   0  0  0  0  0  0  0  0  0  0  0  0
   25.7530   -8.3730   33.9220 C   0  0  0  0  0  0  0  0  0  0  0  0
   25.7230   -8.4170   32.3830 C   0  0  0  0  0  0  0  0  0  0  0  0
   27.1750   -9.2230   31.7130 S   0  0  0  0  0  0  0  0  0  0  0  0
   28.0300   -8.2130   30.8630 O   0  0  0  0  0  0  0  0  0  0  0  0
   26.7470  -10.4560   30.8110 O   0  0  0  0  0  0  0  0  0  0  0  0
   28.1580   -9.8040   32.9200 O   0  0  0  0  0  0  0  0  0  0  0  0
   25.7260   31.2250    0.1850 O   0  0  0  0  0  0  0  0  0  0  0  0
   26.1840   32.4240   -0.5070 C   0  0  0  0  0  0  0  0  0  0  0  0
   26.6480   33.4990    0.5120 C   0  0  0  0  0  0  0  0  0  0  0  0
   26.7550   32.9270    1.9620 N   0  0  0  0  0  0  0  0  0  0  0  0
   27.3560   31.4880    2.0450 C   0  0  0  0  0  0  0  0  0  0  0  0
   26.7050   30.5270    1.0120 C   0  0  0  0  0  0  0  0  0  0  0  0
   27.4870   33.9090    2.8970 C   0  0  0  0  0  0  0  0  0  0  0  0
   26.9630   33.9050    4.3420 C   0  0  0  0  0  0  0  0  0  0  0  0
   27.9870   34.8970    5.4260 S   0  0  0  0  0  0  0  0  0  0  0  0
   28.6790   33.9910    6.5290 O   0  0  0  0  0  0  0  0  0  0  0  0
   27.1260   36.0210    6.1180 O   0  0  0  0  0  0  0  0  0  0  0  0
   29.2200   35.6520    4.5850 O   0  0  0  0  0  0  0  0  0  0  0  0
  1  2  1  0  0  0  0
  3  2  1  0  0  0  0
  4  5  1  0  0  0  0
  4  3  1  0  0  0  0
  5  6  1  0  0  0  0
  6  1  1  0  0  0  0
  7  4  1  0  0  0  0
  8  7  1  0  0  0  0
  9  8  1  0  0  0  0
  9 12  1  0  0  0  0
 10  9  1  0  0  0  0
 11  9  1  0  0  0  0
 13 18  1  0  0  0  0
 14 13  1  0  0  0  0
 14 15  1  0  0  0  0
 15 16  1  0  0  0  0
 16 17  1  0  0  0  0
 16 19  1  0  0  0  0
 18 17  1  0  0  0  0
 19 20  1  0  0  0  0
 20 21  1  0  0  0  0
 21 23  1  0  0  0  0
 21 22  1  0  0  0  0
 24 21  1  0  0  0  0
M  END
>  <REMARK>
 Selection 'resname MES'

$$$$
