./pdb_data/19GSBSPlig.pdb
 OpenBabel04272312383D

 28 30  0  0  0  0  0  0  0  0999 V2000
    6.7360    2.0250   29.8430 C   0  0  0  0  0  0  0  0  0  0  0  0
    6.1550    1.1550   30.8350 C   0  0  0  0  0  0  0  0  0  0  0  0
    5.1830    1.6860   31.7540 C   0  0  0  0  0  0  0  0  0  0  0  0
    4.7830    3.0590   31.6870 C   0  0  0  0  0  0  0  0  0  0  0  0
    5.3620    3.9530   30.7080 C   0  0  0  0  0  0  0  0  0  0  0  0
    6.3340    3.4280   29.7730 C   0  0  0  0  0  0  0  0  0  0  0  0
    7.1120    4.6240   28.4260 Br  0  0  0  0  0  0  0  0  0  0  0  0
    4.8000    5.8220   30.6670 Br  0  0  0  0  0  0  0  0  0  0  0  0
    8.0630    1.2960   28.6000 Br  0  0  0  0  0  0  0  0  0  0  0  0
    6.6480   -0.7180   30.9870 Br  0  0  0  0  0  0  0  0  0  0  0  0
    3.7730    3.3080   32.7550 C   0  0  0  0  0  0  0  0  0  0  0  0
    3.5740    2.1160   33.4260 O   0  0  0  0  0  0  0  0  0  0  0  0
    3.1980    4.3600   33.0200 O   0  0  0  0  0  0  0  0  0  0  0  0
    4.3880    1.0080   32.9020 C   0  0  0  0  0  0  0  0  0  0  0  0
    9.9150   20.8110    1.1680 C   0  0  0  0  0  0  0  0  0  0  0  0
    9.5620   21.6140    0.0220 C   0  0  0  0  0  0  0  0  0  0  0  0
    8.9900   20.9730   -1.1370 C   0  0  0  0  0  0  0  0  0  0  0  0
    8.7950   19.5570   -1.1670 C   0  0  0  0  0  0  0  0  0  0  0  0
    9.1460   18.7340   -0.0350 C   0  0  0  0  0  0  0  0  0  0  0  0
    9.7110   19.3650    1.1380 C   0  0  0  0  0  0  0  0  0  0  0  0
   10.1910   18.2530    2.6880 Br  0  0  0  0  0  0  0  0  0  0  0  0
    8.8530   16.8010   -0.1210 Br  0  0  0  0  0  0  0  0  0  0  0  0
   10.6870   21.6860    2.7430 Br  0  0  0  0  0  0  0  0  0  0  0  0
    9.8060   23.5420   -0.0010 Br  0  0  0  0  0  0  0  0  0  0  0  0
    8.1930   19.1900   -2.4770 C   0  0  0  0  0  0  0  0  0  0  0  0
    8.0530   20.3510   -3.2130 O   0  0  0  0  0  0  0  0  0  0  0  0
    7.8830   18.0700   -2.8750 O   0  0  0  0  0  0  0  0  0  0  0  0
    8.5040   21.5530   -2.4950 C   0  0  0  0  0  0  0  0  0  0  0  0
  1  2  1  0  0  0  0
  2 10  1  0  0  0  0
  2  3  2  0  0  0  0
  3 14  1  0  0  0  0
  4  3  1  0  0  0  0
  4 11  1  0  0  0  0
  5  4  2  0  0  0  0
  6  1  2  0  0  0  0
  6  5  1  0  0  0  0
  7  6  1  0  0  0  0
  8  5  1  0  0  0  0
  9  1  1  0  0  0  0
 11 13  2  0  0  0  0
 11 12  1  0  0  0  0
 14 12  1  0  0  0  0
 15 23  1  0  0  0  0
 16 15  2  0  0  0  0
 17 16  1  0  0  0  0
 18 17  2  0  0  0  0
 18 19  1  0  0  0  0
 19 20  2  0  0  0  0
 20 15  1  0  0  0  0
 20 21  1  0  0  0  0
 22 19  1  0  0  0  0
 24 16  1  0  0  0  0
 25 18  1  0  0  0  0
 26 28  1  0  0  0  0
 26 25  1  0  0  0  0
 27 25  2  0  0  0  0
 28 17  1  0  0  0  0
M  END
>  <REMARK>
 Selection 'resname BSP'

$$$$
