./pdb_data/19GSGSHlig.pdb
 OpenBabel04272312383D

 40 38  0  0  1  0  0  0  0  0999 V2000
   14.6360   10.8300   23.1590 N   0  0  0  0  0  0  0  0  0  0  0  0
   14.5770   10.0460   24.4270 C   0  0  2  0  0  0  0  0  0  0  0  0
   15.6890    9.0050   24.4630 C   0  0  0  0  0  0  0  0  0  0  0  0
   16.0240    8.5020   25.5590 O   0  0  0  0  0  0  0  0  0  0  0  0
   16.2140    8.7040   23.3750 O   0  0  0  0  0  0  0  0  0  0  0  0
   13.2330    9.3380   24.5380 C   0  0  0  0  0  0  0  0  0  0  0  0
   12.9730    8.7550   25.9050 C   0  0  0  0  0  0  0  0  0  0  0  0
   11.6080    8.1080   26.0290 C   0  0  0  0  0  0  0  0  0  0  0  0
   10.8130    8.0890   25.0840 O   0  0  0  0  0  0  0  0  0  0  0  0
   11.3490    7.5660   27.2140 N   0  0  0  0  0  0  0  0  0  0  0  0
   10.0890    6.9120   27.5190 C   0  0  2  0  0  0  0  0  0  0  0  0
    9.5680    7.4370   28.8530 C   0  0  0  0  0  0  0  0  0  0  0  0
   10.3450    7.8520   29.7080 O   0  0  0  0  0  0  0  0  0  0  0  0
   10.2980    5.3970   27.5920 C   0  0  0  0  0  0  0  0  0  0  0  0
   11.4140    4.7300   26.3160 S   0  0  0  0  0  0  0  0  0  0  0  0
    8.2480    7.4280   29.0160 N   0  0  0  0  0  0  0  0  0  0  0  0
    7.6460    7.8970   30.2500 C   0  0  0  0  0  0  0  0  0  0  0  0
    7.0860    9.2970   30.1190 C   0  0  0  0  0  0  0  0  0  0  0  0
    6.4270    9.7700   31.0720 O   0  0  0  0  0  0  0  0  0  0  0  0
    7.3100    9.9220   29.0590 O   0  0  0  0  0  0  0  0  0  0  0  0
   16.5810   13.0380   10.1230 N   0  0  0  0  0  0  0  0  0  0  0  0
   16.7910   13.8270    8.8700 C   0  0  2  0  0  0  0  0  0  0  0  0
   17.7080   15.0150    9.1480 C   0  0  0  0  0  0  0  0  0  0  0  0
   18.2760   15.5930    8.1950 O   0  0  0  0  0  0  0  0  0  0  0  0
   17.8500   15.3460   10.3410 O   0  0  0  0  0  0  0  0  0  0  0  0
   15.4570   14.3410    8.3460 C   0  0  0  0  0  0  0  0  0  0  0  0
   15.5600   14.9350    6.9640 C   0  0  0  0  0  0  0  0  0  0  0  0
   14.2290   15.3710    6.4030 C   0  0  0  0  0  0  0  0  0  0  0  0
   13.1860   15.2470    7.0550 O   0  0  0  0  0  0  0  0  0  0  0  0
   14.2760   15.8910    5.1810 N   0  0  0  0  0  0  0  0  0  0  0  0
   13.0870   16.3650    4.4900 C   0  0  2  0  0  0  0  0  0  0  0  0
   13.0780   15.8150    3.0720 C   0  0  0  0  0  0  0  0  0  0  0  0
   14.1280   15.5440    2.5030 O   0  0  0  0  0  0  0  0  0  0  0  0
   13.0800   17.8970    4.4590 C   0  0  0  0  0  0  0  0  0  0  0  0
   13.5970   18.6860    6.0220 S   0  0  0  0  0  0  0  0  0  0  0  0
   11.8850   15.6470    2.5120 N   0  0  0  0  0  0  0  0  0  0  0  0
   11.7750   15.1330    1.1630 C   0  0  0  0  0  0  0  0  0  0  0  0
   11.4330   13.6590    1.1430 C   0  0  0  0  0  0  0  0  0  0  0  0
   11.2160   13.1160    0.0350 O   0  0  0  0  0  0  0  0  0  0  0  0
   11.3780   13.0520    2.2360 O   0  0  0  0  0  0  0  0  0  0  0  0
  2  1  1  6  0  0  0
  2  3  1  0  0  0  0
  2  6  1  0  0  0  0
  3  4  1  0  0  0  0
  5  3  2  0  0  0  0
  6  7  1  0  0  0  0
  7  8  1  0  0  0  0
  8 10  1  0  0  0  0
  9  8  2  0  0  0  0
 10 11  1  0  0  0  0
 11 14  1  1  0  0  0
 11 12  1  0  0  0  0
 12 16  1  0  0  0  0
 12 13  2  0  0  0  0
 15 14  1  0  0  0  0
 16 17  1  0  0  0  0
 18 17  1  0  0  0  0
 18 19  1  0  0  0  0
 20 18  2  0  0  0  0
 22 23  1  0  0  0  0
 22 21  1  1  0  0  0
 23 25  1  0  0  0  0
 24 23  2  0  0  0  0
 26 22  1  0  0  0  0
 27 26  1  0  0  0  0
 28 27  1  0  0  0  0
 28 29  2  0  0  0  0
 30 28  1  0  0  0  0
 31 34  1  6  0  0  0
 31 30  1  0  0  0  0
 32 31  1  0  0  0  0
 33 32  2  0  0  0  0
 34 35  1  0  0  0  0
 36 32  1  0  0  0  0
 37 36  1  0  0  0  0
 38 37  1  0  0  0  0
 38 40  1  0  0  0  0
 39 38  2  0  0  0  0
M  END
>  <REMARK>
 Selection 'resname GSH'

$$$$
