./pdb_data/19GSMESlig.pdb
 OpenBabel04272312383D

 24 24  0  0  0  0  0  0  0  0999 V2000
   22.3790   -6.2730   35.4820 O   0  0  0  0  0  0  0  0  0  0  0  0
   23.4850   -5.3550   35.2220 C   0  0  0  0  0  0  0  0  0  0  0  0
   24.6960   -6.1080   34.6070 C   0  0  0  0  0  0  0  0  0  0  0  0
   24.3950   -7.6290   34.4760 N   0  0  0  0  0  0  0  0  0  0  0  0
   23.8290   -8.2700   35.7780 C   0  0  0  0  0  0  0  0  0  0  0  0
   22.6710   -7.4080   36.3580 C   0  0  0  0  0  0  0  0  0  0  0  0
   25.5760   -8.4150   33.8820 C   0  0  0  0  0  0  0  0  0  0  0  0
   25.6710   -8.2830   32.3540 C   0  0  0  0  0  0  0  0  0  0  0  0
   27.0120   -9.2370   31.6720 S   0  0  0  0  0  0  0  0  0  0  0  0
   27.8120   -8.3960   30.6140 O   0  0  0  0  0  0  0  0  0  0  0  0
   28.0880   -9.6980   32.8510 O   0  0  0  0  0  0  0  0  0  0  0  0
   26.4650  -10.5530   30.9840 O   0  0  0  0  0  0  0  0  0  0  0  0
   25.2430   31.3090    0.4500 O   0  0  0  0  0  0  0  0  0  0  0  0
   26.3280   30.5470    1.0700 C   0  0  0  0  0  0  0  0  0  0  0  0
   27.1690   31.4450    2.0090 C   0  0  0  0  0  0  0  0  0  0  0  0
   26.6330   32.9070    2.0040 N   0  0  0  0  0  0  0  0  0  0  0  0
   26.4210   33.4910    0.5770 C   0  0  0  0  0  0  0  0  0  0  0  0
   25.6210   32.4990   -0.3150 C   0  0  0  0  0  0  0  0  0  0  0  0
   27.4520   33.8430    2.9100 C   0  0  0  0  0  0  0  0  0  0  0  0
   27.0980   33.6820    4.3980 C   0  0  0  0  0  0  0  0  0  0  0  0
   28.0100   34.8020    5.4470 S   0  0  0  0  0  0  0  0  0  0  0  0
   28.5580   34.0510    6.7230 O   0  0  0  0  0  0  0  0  0  0  0  0
   29.3410   35.4270    4.6580 O   0  0  0  0  0  0  0  0  0  0  0  0
   27.0920   36.0060    5.8870 O   0  0  0  0  0  0  0  0  0  0  0  0
  1  6  1  0  0  0  0
  2  1  1  0  0  0  0
  3  2  1  0  0  0  0
  4  3  1  0  0  0  0
  4  5  1  0  0  0  0
  5  6  1  0  0  0  0
  7  4  1  0  0  0  0
  8  7  1  0  0  0  0
  9  8  1  0  0  0  0
  9 11  1  0  0  0  0
 10  9  1  0  0  0  0
 12  9  1  0  0  0  0
 13 14  1  0  0  0  0
 14 15  1  0  0  0  0
 16 15  1  0  0  0  0
 16 19  1  0  0  0  0
 17 16  1  0  0  0  0
 18 13  1  0  0  0  0
 18 17  1  0  0  0  0
 19 20  1  0  0  0  0
 20 21  1  0  0  0  0
 21 24  1  0  0  0  0
 21 22  1  0  0  0  0
 23 21  1  0  0  0  0
M  END
>  <REMARK>
 Selection 'resname MES'

$$$$
