./pdb_data/1A07ACElig.pdb
 OpenBabel04272312383D

  6  4  0  0  0  0  0  0  0  0999 V2000
   41.8580    7.6880   24.7570 C   0  0  0  0  0  0  0  0  0  0  0  0
   41.7940    8.9060   24.8540 O   0  0  0  0  0  0  0  0  0  0  0  0
   41.8060    6.7750   25.9630 C   0  0  0  0  0  0  0  0  0  0  0  0
   44.2370   -8.2120   37.7350 C   0  0  0  0  0  0  0  0  0  0  0  0
   44.7330   -7.0880   37.6820 O   0  0  0  0  0  0  0  0  0  0  0  0
   44.5630   -9.2310   36.6600 C   0  0  0  0  0  0  0  0  0  0  0  0
  1  2  2  0  0  0  0
  1  3  1  0  0  0  0
  5  4  2  0  0  0  0
  6  4  1  0  0  0  0
M  END
>  <REMARK>
 Selection 'resname ACE'

$$$$
