./pdb_data/1A07DIPlig.pdb
 OpenBabel04272312383D

 22 20  0  0  0  0  0  0  0  0999 V2000
   39.2210    6.7470   17.7280 N   0  0  0  0  0  0  0  0  0  0  0  0
   37.8750    6.4520   18.1920 C   0  0  0  0  0  0  0  0  0  0  0  0
   38.0810    5.2500   19.0710 C   0  0  0  0  0  0  0  0  0  0  0  0
   36.7660    4.9540   19.6480 C   0  0  0  0  0  0  0  0  0  0  0  0
   37.0060    3.6480   20.3270 C   0  0  0  0  0  0  0  0  0  0  0  0
   35.6060    3.0530   20.6130 C   0  0  0  0  0  0  0  0  0  0  0  0
   39.6130    6.2760   16.4020 C   0  0  0  0  0  0  0  0  0  0  0  0
   38.9260    7.1280   15.3180 C   0  0  0  0  0  0  0  0  0  0  0  0
   39.5520    8.4960   15.0780 C   0  0  0  0  0  0  0  0  0  0  0  0
   38.7770    9.1790   13.9870 C   0  0  0  0  0  0  0  0  0  0  0  0
   39.2690   10.6120   13.9060 C   0  0  0  0  0  0  0  0  0  0  0  0
   42.1750   -9.3920   44.9650 N   0  0  0  0  0  0  0  0  0  0  0  0
   43.3590  -10.0850   45.4580 C   0  0  0  0  0  0  0  0  0  0  0  0
   43.3090  -11.3700   44.6620 C   0  0  0  0  0  0  0  0  0  0  0  0
   44.6400  -12.0510   44.6530 C   0  0  0  0  0  0  0  0  0  0  0  0
   44.4660  -12.8770   43.4050 C   0  0  0  0  0  0  0  0  0  0  0  0
   45.6740  -13.7880   43.1090 C   0  0  0  0  0  0  0  0  0  0  0  0
   40.9270   -9.5980   45.6950 C   0  0  0  0  0  0  0  0  0  0  0  0
   41.0950   -8.9380   47.0430 C   0  0  0  0  0  0  0  0  0  0  0  0
   41.0080   -7.4330   47.0000 C   0  0  0  0  0  0  0  0  0  0  0  0
   41.1620   -6.9710   48.4190 C   0  0  0  0  0  0  0  0  0  0  0  0
   41.1630   -5.4480   48.4790 C   0  0  0  0  0  0  0  0  0  0  0  0
  1  2  1  0  0  0  0
  2  3  1  0  0  0  0
  3  4  1  0  0  0  0
  4  5  1  0  0  0  0
  5  6  1  0  0  0  0
  7  1  1  0  0  0  0
  8  7  1  0  0  0  0
  9  8  1  0  0  0  0
 10  9  1  0  0  0  0
 11 10  1  0  0  0  0
 12 13  1  0  0  0  0
 12 18  1  0  0  0  0
 14 13  1  0  0  0  0
 15 14  1  0  0  0  0
 16 15  1  0  0  0  0
 17 16  1  0  0  0  0
 18 19  1  0  0  0  0
 20 19  1  0  0  0  0
 20 21  1  0  0  0  0
 21 22  1  0  0  0  0
M  END
>  <REMARK>
 Selection 'resname DIP'

$$$$
