./pdb_data/1A07PTRlig.pdb
 OpenBabel05082318593D

 24 24  0  0  1  0  0  0  0  0999 V2000
   42.1110    7.0420   23.6420 N   0  0  0  0  0  0  0  0  0  0  0  0
   42.1910    7.6800   22.3620 C   0  0  2  0  0  0  0  0  0  0  0  0
   41.0470    7.2960   21.4640 C   0  0  0  0  0  0  0  0  0  0  0  0
   40.6400    6.1200   21.3870 O   0  0  0  0  0  0  0  0  0  0  0  0
   43.4460    7.2820   21.6760 C   0  0  0  0  0  0  0  0  0  0  0  0
   44.6590    7.7880   22.3990 C   0  0  0  0  0  0  0  0  0  0  0  0
   45.3010    6.9530   23.2880 C   0  0  0  0  0  0  0  0  0  0  0  0
   45.1370    9.0420   22.1240 C   0  0  0  0  0  0  0  0  0  0  0  0
   46.4430    7.3840   23.9290 C   0  0  0  0  0  0  0  0  0  0  0  0
   46.2720    9.4640   22.7540 C   0  0  0  0  0  0  0  0  0  0  0  0
   46.9490    8.6400   23.6440 C   0  0  0  0  0  0  0  0  0  0  0  0
   42.2520    6.0740   23.6880 H   0  0  0  0  0  0  0  0  0  0  0  0
   43.2450   -8.6020   38.5290 N   0  0  0  0  0  0  0  0  0  0  0  0
   42.7180   -7.8550   39.6520 C   0  0  2  0  0  0  0  0  0  0  0  0
   43.0310   -8.5870   40.9380 C   0  0  0  0  0  0  0  0  0  0  0  0
   42.9840   -9.8300   41.0350 O   0  0  0  0  0  0  0  0  0  0  0  0
   41.2230   -7.7330   39.5770 C   0  0  0  0  0  0  0  0  0  0  0  0
   40.7870   -7.0350   38.3170 C   0  0  0  0  0  0  0  0  0  0  0  0
   40.1550   -7.7460   37.3250 C   0  0  0  0  0  0  0  0  0  0  0  0
   40.9540   -5.6820   38.1710 C   0  0  0  0  0  0  0  0  0  0  0  0
   39.6750   -7.0980   36.2050 C   0  0  0  0  0  0  0  0  0  0  0  0
   40.4900   -5.0230   37.0660 C   0  0  0  0  0  0  0  0  0  0  0  0
   39.8380   -5.7310   36.0960 C   0  0  0  0  0  0  0  0  0  0  0  0
   42.8350   -9.4700   38.3380 H   0  0  0  0  0  0  0  0  0  0  0  0
  1 12  1  0  0  0  0
  2  3  1  6  0  0  0
  2  1  1  0  0  0  0
  4  3  2  0  0  0  0
  5  2  1  0  0  0  0
  5  6  1  0  0  0  0
  6  7  1  0  0  0  0
  7  9  2  0  0  0  0
  8  6  2  0  0  0  0
  8 10  1  0  0  0  0
 10 11  2  0  0  0  0
 11  9  1  0  0  0  0
 13 14  1  0  0  0  0
 14 17  1  6  0  0  0
 14 15  1  0  0  0  0
 15 16  2  0  0  0  0
 18 17  1  0  0  0  0
 19 18  2  0  0  0  0
 20 18  1  0  0  0  0
 21 19  1  0  0  0  0
 22 20  2  0  0  0  0
 23 21  2  0  0  0  0
 23 22  1  0  0  0  0
 24 13  1  0  0  0  0
M  END
>  <REMARK>
 Selection 'resname PTR'

$$$$
