./pdb_data/1A08FTYlig.pdb
 OpenBabel04272312383D

 38 38  0  0  1  0  0  0  0  0999 V2000
   41.6110    7.1210   23.4750 N   0  0  0  0  0  0  0  0  0  0  0  0
   41.4640    7.8470   22.2290 C   0  0  2  0  0  0  0  0  0  0  0  0
   40.2360    7.3890   21.4600 C   0  0  0  0  0  0  0  0  0  0  0  0
   39.7050    6.2960   21.6760 O   0  0  0  0  0  0  0  0  0  0  0  0
   42.7500    7.6550   21.4040 C   0  0  0  0  0  0  0  0  0  0  0  0
   43.9840    8.0510   22.2010 C   0  0  0  0  0  0  0  0  0  0  0  0
   44.7090    7.1450   23.0070 C   0  0  0  0  0  0  0  0  0  0  0  0
   44.3870    9.3440   22.1140 C   0  0  0  0  0  0  0  0  0  0  0  0
   45.8310    7.5360   23.7220 C   0  0  0  0  0  0  0  0  0  0  0  0
   45.4940    9.7320   22.8140 C   0  0  0  0  0  0  0  0  0  0  0  0
   46.2270    8.8610   23.6100 C   0  0  0  0  0  0  0  0  0  0  0  0
   47.4870    9.4350   24.2980 C   0  0  0  0  0  0  0  0  0  0  0  0
   48.6090    8.6190   24.1110 F   0  0  0  0  0  0  0  0  0  0  0  0
   47.8940   10.4980   23.4710 F   0  0  0  0  0  0  0  0  0  0  0  0
   47.4770    9.8790   26.0920 P   0  0  0  0  0  0  0  0  0  0  0  0
   48.7700   10.5430   26.2560 O   0  0  0  0  0  0  0  0  0  0  0  0
   47.4560    8.5560   26.7380 O   0  0  0  0  0  0  0  0  0  0  0  0
   46.2490   10.7280   26.2340 O   0  0  0  0  0  0  0  0  0  0  0  0
   42.3920    7.2800   24.0450 H   0  0  0  0  0  0  0  0  0  0  0  0
   42.3580   -8.1820   38.8740 N   0  0  0  0  0  0  0  0  0  0  0  0
   41.9910   -7.3300   39.9510 C   0  0  2  0  0  0  0  0  0  0  0  0
   42.3440   -8.1150   41.1690 C   0  0  0  0  0  0  0  0  0  0  0  0
   42.3640   -9.3630   41.1510 O   0  0  0  0  0  0  0  0  0  0  0  0
   40.5250   -7.0650   39.9510 C   0  0  0  0  0  0  0  0  0  0  0  0
   40.1280   -6.2870   38.7240 C   0  0  0  0  0  0  0  0  0  0  0  0
   39.4240   -6.9240   37.7580 C   0  0  0  0  0  0  0  0  0  0  0  0
   40.4360   -4.9600   38.5660 C   0  0  0  0  0  0  0  0  0  0  0  0
   39.0180   -6.2460   36.6340 C   0  0  0  0  0  0  0  0  0  0  0  0
   40.0390   -4.2480   37.4400 C   0  0  0  0  0  0  0  0  0  0  0  0
   39.3040   -4.9020   36.4670 C   0  0  0  0  0  0  0  0  0  0  0  0
   38.7510   -4.1510   35.2490 C   0  0  0  0  0  0  0  0  0  0  0  0
   37.5430   -4.7880   34.9080 F   0  0  0  0  0  0  0  0  0  0  0  0
   38.2730   -2.9210   35.7150 F   0  0  0  0  0  0  0  0  0  0  0  0
   39.8430   -4.0030   33.7340 P   0  0  0  0  0  0  0  0  0  0  0  0
   39.1440   -2.9420   32.9610 O   0  0  0  0  0  0  0  0  0  0  0  0
   39.7080   -5.3780   33.2080 O   0  0  0  0  0  0  0  0  0  0  0  0
   41.1800   -3.6250   34.3220 O   0  0  0  0  0  0  0  0  0  0  0  0
   41.7240   -8.3520   38.1460 H   0  0  0  0  0  0  0  0  0  0  0  0
  1 19  1  0  0  0  0
  2  5  1  6  0  0  0
  2  1  1  0  0  0  0
  3  4  2  0  0  0  0
  3  2  1  0  0  0  0
  5  6  1  0  0  0  0
  6  7  1  0  0  0  0
  7  9  2  0  0  0  0
  8  6  2  0  0  0  0
  8 10  1  0  0  0  0
 10 11  2  0  0  0  0
 11  9  1  0  0  0  0
 11 12  1  0  0  0  0
 12 15  1  0  0  0  0
 13 12  1  0  0  0  0
 14 12  1  0  0  0  0
 15 18  2  0  0  0  0
 15 16  1  0  0  0  0
 15 17  1  0  0  0  0
 20 21  1  0  0  0  0
 21 24  1  1  0  0  0
 21 22  1  0  0  0  0
 23 22  2  0  0  0  0
 25 24  1  0  0  0  0
 26 25  2  0  0  0  0
 27 25  1  0  0  0  0
 28 26  1  0  0  0  0
 29 27  2  0  0  0  0
 30 28  2  0  0  0  0
 30 29  1  0  0  0  0
 31 33  1  0  0  0  0
 31 30  1  0  0  0  0
 32 31  1  0  0  0  0
 34 37  1  0  0  0  0
 34 31  1  0  0  0  0
 35 34  2  0  0  0  0
 36 34  1  0  0  0  0
 38 20  1  0  0  0  0
M  END
>  <REMARK>
 Selection 'resname FTY'

$$$$
