./pdb_data/1A08DIPlig.pdb
 OpenBabel05082318583D

 22 20  0  0  0  0  0  0  0  0999 V2000
   38.3400    6.4580   17.6920 N   0  0  0  0  0  0  0  0  0  0  0  0
   37.0330    6.0690   18.2190 C   0  0  0  0  0  0  0  0  0  0  0  0
   37.3680    5.0290   19.2960 C   0  0  0  0  0  0  0  0  0  0  0  0
   36.2460    4.7760   20.2680 C   0  0  0  0  0  0  0  0  0  0  0  0
   35.1220    3.9400   19.7130 C   0  0  0  0  0  0  0  0  0  0  0  0
   35.2460    2.4610   20.1590 C   0  0  0  0  0  0  0  0  0  0  0  0
   38.6840    5.9690   16.3670 C   0  0  0  0  0  0  0  0  0  0  0  0
   37.8280    6.7260   15.3260 C   0  0  0  0  0  0  0  0  0  0  0  0
   38.3260    8.2080   15.1210 C   0  0  0  0  0  0  0  0  0  0  0  0
   37.7080    9.0520   13.9690 C   0  0  0  0  0  0  0  0  0  0  0  0
   38.5800   10.3120   13.7740 C   0  0  0  0  0  0  0  0  0  0  0  0
   41.8240   -9.0350   45.3360 N   0  0  0  0  0  0  0  0  0  0  0  0
   43.0730   -9.6620   45.6710 C   0  0  0  0  0  0  0  0  0  0  0  0
   42.9710  -10.9110   44.8390 C   0  0  0  0  0  0  0  0  0  0  0  0
   44.2730  -11.6540   44.9960 C   0  0  0  0  0  0  0  0  0  0  0  0
   44.3000  -12.4270   43.7050 C   0  0  0  0  0  0  0  0  0  0  0  0
   45.5570  -13.3070   43.5840 C   0  0  0  0  0  0  0  0  0  0  0  0
   40.6970   -9.3170   46.2140 C   0  0  0  0  0  0  0  0  0  0  0  0
   40.8830   -8.5190   47.4930 C   0  0  0  0  0  0  0  0  0  0  0  0
   40.5930   -7.0400   47.4410 C   0  0  0  0  0  0  0  0  0  0  0  0
   41.3990   -6.5690   48.6230 C   0  0  0  0  0  0  0  0  0  0  0  0
   41.1700   -5.0820   48.8520 C   0  0  0  0  0  0  0  0  0  0  0  0
  1  2  1  0  0  0  0
  2  3  1  0  0  0  0
  3  4  1  0  0  0  0
  5  6  1  0  0  0  0
  5  4  1  0  0  0  0
  7  1  1  0  0  0  0
  8  7  1  0  0  0  0
  9  8  1  0  0  0  0
 10  9  1  0  0  0  0
 11 10  1  0  0  0  0
 12 13  1  0  0  0  0
 12 18  1  0  0  0  0
 14 15  1  0  0  0  0
 14 13  1  0  0  0  0
 16 15  1  0  0  0  0
 17 16  1  0  0  0  0
 18 19  1  0  0  0  0
 20 19  1  0  0  0  0
 20 21  1  0  0  0  0
 21 22  1  0  0  0  0
M  END
>  <REMARK>
 Selection 'resname DIP'

$$$$
