./pdb_data/1A08ACElig.pdb
 OpenBabel05082318583D

  6  4  0  0  0  0  0  0  0  0999 V2000
   41.3330    7.6410   24.6710 C   0  0  0  0  0  0  0  0  0  0  0  0
   41.0370    8.8260   24.9230 O   0  0  0  0  0  0  0  0  0  0  0  0
   41.5940    6.6140   25.7620 C   0  0  0  0  0  0  0  0  0  0  0  0
   43.5080   -8.0440   38.2370 C   0  0  0  0  0  0  0  0  0  0  0  0
   44.1880   -7.0280   38.3750 O   0  0  0  0  0  0  0  0  0  0  0  0
   43.8350   -9.0850   37.1590 C   0  0  0  0  0  0  0  0  0  0  0  0
  1  2  2  0  0  0  0
  1  3  1  0  0  0  0
  4  5  2  0  0  0  0
  6  4  1  0  0  0  0
M  END
>  <REMARK>
 Selection 'resname ACE'

$$$$
